# File generated by Flopy version 3.5.0 on 03/08/2024 at 15:39:53.
BEGIN options
END options

BEGIN griddata
  icelltype
    CONSTANT  0
  k
    INTERNAL  FACTOR  1.0
    6.17535913E-05  1.16825242E-04  1.42242440E-04  1.36613497E-04  1.06942889E-04  1.18284196E-04  1.32571927E-04  1.77040215E-04  2.48114286E-04  3.63645127E-04  3.95950188E-04  3.77599144E-04  3.20373349E-04  2.69833999E-04  2.56670352E-04  2.15253387E-04  1.83889256E-04  1.96077129E-04  1.64151908E-04  1.26218667E-04
    1.09208769E-04  1.35327242E-04  1.82004186E-04  1.94205978E-04  2.05688828E-04  2.05037274E-04  2.37158780E-04  2.01183577E-04  1.84511275E-04  2.25528488E-04  3.09868856E-04  4.77115658E-04  6.20776985E-04  6.52063138E-04  6.98715048E-04  6.40837884E-04  6.12267337E-04  4.98836843E-04  4.18488754E-04  3.85758649E-04
    3.17885022E-04  1.77340214E-04  1.41546974E-04  1.59481600E-04  2.20186418E-04  2.19855675E-04  2.41907790E-04  2.44166738E-04  1.78434591E-04  1.14163327E-04  9.43768651E-05  1.00235449E-04  1.36525789E-04  1.57958161E-04  1.56105681E-04  1.34672835E-04  1.31179742E-04  1.11721886E-04  1.44688375E-04  2.52965737E-04
    2.32310875E-04  2.48733215E-04  2.62684398E-04  2.72264945E-04  2.73431334E-04  2.87528131E-04  2.86365133E-04  2.40338888E-04  2.03219903E-04  1.96465266E-04  1.61152645E-04  1.13600558E-04  6.19439059E-05  3.83175286E-05  3.15328861E-05  2.66618644E-05  2.84069130E-05  2.83062470E-05  4.29235012E-05  5.43120557E-05
    6.21574634E-05  6.34573428E-05  5.91406738E-05  4.72809309E-05  6.30438994E-05  1.07899335E-04  1.70190579E-04  1.95400119E-04  2.88283026E-04  3.65796331E-04  4.15056343E-04  4.20074302E-04  4.30054826E-04  4.51479272E-04  4.01387680E-04  3.58783250E-04  4.33399685E-04  5.36547106E-04  4.76889305E-04  4.33715772E-04
    1.45529294E-04  1.20729917E-04  1.49725616E-04  1.27089757E-04  1.10143651E-04  1.11671145E-04  1.49826849E-04  1.50925817E-04  2.52232131E-04  3.50986780E-04  5.06635124E-04  4.74642829E-04  4.13676709E-04  3.34031776E-04  2.95266686E-04  2.43930810E-04  2.00204589E-04  2.25861631E-04  1.81774646E-04  1.28119723E-04
    9.69021920E-05  1.21625521E-04  1.81486377E-04  2.17789842E-04  2.08153360E-04  3.20734550E-04  2.94821654E-04  2.49680743E-04  2.13682152E-04  2.67592488E-04  3.44693797E-04  4.21027919E-04  5.25212369E-04  6.65718122E-04  8.68175940E-04  6.83223517E-04  5.38578661E-04  4.10008035E-04  3.91156572E-04  3.09362245E-04
    2.71183885E-04  1.47697607E-04  1.23542913E-04  1.20279516E-04  1.73867787E-04  1.84755900E-04  2.55991178E-04  2.46710016E-04  1.65483744E-04  9.81912398E-05  7.28734429E-05  7.23411311E-05  9.19946585E-05  1.32598196E-04  1.37688866E-04  1.31715964E-04  1.06912292E-04  1.11456400E-04  1.39310952E-04  2.40769865E-04
    2.83558309E-04  3.36924095E-04  3.49682848E-04  3.94788698E-04  3.17354841E-04  3.59150099E-04  3.77331976E-04  3.11462110E-04  2.47414600E-04  2.09080428E-04  1.83830591E-04  9.78252339E-05  6.00318671E-05  4.81897159E-05  3.92989900E-05  3.56783155E-05  4.14480325E-05  4.30028514E-05  6.52611292E-05  6.76305729E-05
    7.98751095E-05  9.19399316E-05  8.77437218E-05  5.93380722E-05  6.50987654E-05  1.27306932E-04  2.09320221E-04  2.60810520E-04  3.50396961E-04  4.65712766E-04  5.54588122E-04  4.36615713E-04  4.81038412E-04  5.62831526E-04  3.95803667E-04  2.80482502E-04  2.56844901E-04  3.76906637E-04  3.45560494E-04  3.13426576E-04
    1.50771530E-04  1.13769394E-04  1.32841856E-04  1.15430295E-04  9.23316234E-05  1.02470504E-04  1.26500497E-04  1.38448084E-04  1.95844842E-04  3.07219523E-04  4.13267633E-04  5.54403185E-04  4.73964470E-04  4.28052036E-04  2.96173891E-04  2.57169037E-04  2.20252709E-04  2.93382922E-04  2.24783223E-04  1.66546649E-04
    1.23362685E-04  1.44504685E-04  1.66662252E-04  1.86207660E-04  2.22996134E-04  3.30002708E-04  4.00168289E-04  2.78683403E-04  2.30812810E-04  3.05432097E-04  3.07142650E-04  3.33956892E-04  4.35336237E-04  5.63293327E-04  7.60036269E-04  5.83871110E-04  5.76933869E-04  5.26062686E-04  4.39607681E-04  3.59325158E-04
    2.46232328E-04  1.76804255E-04  1.16764485E-04  1.13960568E-04  1.21587670E-04  1.40445555E-04  1.82488535E-04  2.04797595E-04  1.49658140E-04  9.54078676E-05  5.69747045E-05  5.86614058E-05  8.02320928E-05  1.30018101E-04  1.35909048E-04  1.43386908E-04  1.47140244E-04  1.30295235E-04  1.79380292E-04  2.55777100E-04
    3.05184188E-04  4.36528241E-04  4.19818016E-04  4.08972098E-04  4.71048917E-04  4.92668292E-04  4.63516987E-04  3.71942678E-04  2.96827193E-04  2.86007393E-04  2.35426841E-04  1.45150105E-04  6.82022931E-05  6.04419826E-05  5.68584590E-05  5.32999239E-05  6.23745878E-05  8.62339550E-05  9.76690262E-05  1.09240160E-04
    1.08521555E-04  1.49471008E-04  1.32921553E-04  9.07997014E-05  8.96132538E-05  1.63332567E-04  2.77659048E-04  3.12911359E-04  4.17669699E-04  5.82812065E-04  6.99806510E-04  5.76697803E-04  4.91913834E-04  5.68438613E-04  4.04167456E-04  2.16946725E-04  2.12753174E-04  2.78395822E-04  3.11622094E-04  2.75480441E-04
    1.37107305E-04  9.74253935E-05  1.12607094E-04  1.04213382E-04  8.81690799E-05  8.56014812E-05  1.11265066E-04  1.34859373E-04  2.02533492E-04  3.00147143E-04  4.86769080E-04  7.43298662E-04  6.67799309E-04  4.85166194E-04  3.73848853E-04  2.98480525E-04  2.37101587E-04  2.74300260E-04  2.40401483E-04  2.02695604E-04
    1.74857324E-04  1.60594404E-04  1.63699032E-04  1.69001103E-04  1.86660116E-04  3.03368273E-04  3.25560698E-04  3.21484469E-04  2.33133021E-04  3.05563669E-04  3.87262815E-04  4.10293054E-04  4.97572221E-04  5.97294751E-04  6.78040723E-04  7.39818665E-04  6.62892627E-04  6.34351712E-04  4.70110742E-04  3.83836148E-04
    2.70679782E-04  1.65658798E-04  1.32186554E-04  1.12751825E-04  1.09418353E-04  8.81718387E-05  1.14286985E-04  1.52619545E-04  1.47305987E-04  1.02468170E-04  7.02816283E-05  7.13166402E-05  1.12364927E-04  1.51053994E-04  1.66194218E-04  1.73065079E-04  1.90292791E-04  1.54933348E-04  1.80491496E-04  2.92718687E-04
    3.08547581E-04  3.64682829E-04  3.94653472E-04  4.75027975E-04  5.27572793E-04  6.50584469E-04  4.68495178E-04  4.04415205E-04  3.48416765E-04  3.20241194E-04  2.73971119E-04  1.69563935E-04  7.95840823E-05  5.67822043E-05  5.80510416E-05  7.49601398E-05  8.21068301E-05  9.90113194E-05  1.44925844E-04  1.64748220E-04
    1.89206204E-04  1.74653452E-04  1.84480370E-04  1.36156328E-04  1.47726212E-04  1.83425114E-04  2.71276144E-04  2.96671199E-04  3.89299240E-04  4.60020341E-04  5.42682810E-04  5.07269226E-04  5.37767706E-04  5.02472403E-04  3.73836420E-04  2.62508859E-04  2.27075788E-04  3.03801562E-04  2.73132571E-04  2.85406132E-04
    1.04837529E-04  8.11840564E-05  1.02493670E-04  9.76510143E-05  7.98439391E-05  7.75732447E-05  9.75126802E-05  1.18187939E-04  1.89026861E-04  2.77350733E-04  4.21625982E-04  6.21886526E-04  5.13056829E-04  4.01351409E-04  3.71412031E-04  2.85370078E-04  1.97592716E-04  1.86324501E-04  2.16907925E-04  1.88450979E-04
    1.72846970E-04  1.58245157E-04  1.64191868E-04  1.71226058E-04  1.72724578E-04  2.31646995E-04  2.79271906E-04  2.38727043E-04  2.12762960E-04  2.70391021E-04  3.48308305E-04  3.91104035E-04  4.13782066E-04  4.81785255E-04  5.79169780E-04  5.36833190E-04  5.49244392E-04  5.18157716E-04  4.40833804E-04  3.41754358E-04
    2.23397456E-04  1.60856697E-04  1.39782782E-04  1.28118442E-04  1.22381257E-04  9.52324137E-05  1.19716155E-04  1.34755778E-04  1.42890287E-04  1.19976483E-04  1.04693309E-04  1.01069827E-04  1.24866378E-04  1.68467608E-04  1.64517596E-04  1.48331254E-04  1.58032449E-04  1.42516379E-04  1.93666675E-04  2.73380028E-04
    2.96818201E-04  3.55507066E-04  3.53325503E-04  4.33012312E-04  4.44493548E-04  5.49041978E-04  6.10905160E-04  5.03556422E-04  4.07562045E-04  3.44286591E-04  2.99520121E-04  1.70758934E-04  8.48142863E-05  6.07370031E-05  6.19780185E-05  7.58803670E-05  9.54934910E-05  1.08323962E-04  1.72167369E-04  2.18911687E-04
    2.30466008E-04  1.80477621E-04  1.75844944E-04  1.34214042E-04  1.39091618E-04  1.72790654E-04  2.26634852E-04  2.63806324E-04  3.29155156E-04  3.97586887E-04  4.49396322E-04  4.90448857E-04  6.06530639E-04  7.08957288E-04  5.39723549E-04  4.03433693E-04  4.12150684E-04  4.12776902E-04  3.55661891E-04  3.07899630E-04
    1.26869818E-04  7.80677682E-05  1.00346999E-04  8.40910177E-05  7.39666436E-05  7.14192840E-05  1.22699491E-04  1.42280361E-04  2.26718705E-04  3.40619579E-04  5.12593738E-04  6.28965051E-04  6.30801318E-04  4.55192571E-04  4.52137368E-04  3.11325614E-04  2.23249144E-04  1.99405124E-04  2.03236035E-04  2.05803731E-04
    1.64987793E-04  1.73435365E-04  1.68362158E-04  1.68406288E-04  1.48291365E-04  2.00977813E-04  1.94175203E-04  1.91081340E-04  1.64040950E-04  2.45736559E-04  2.95913281E-04  3.39400713E-04  4.37103866E-04  5.43017913E-04  5.41359603E-04  5.01185704E-04  4.96430123E-04  5.51357638E-04  5.03272552E-04  3.48200685E-04
    2.73819021E-04  1.86127537E-04  1.63057069E-04  1.29368283E-04  1.54392542E-04  1.39902259E-04  1.44572715E-04  1.24681707E-04  1.06139943E-04  1.16569696E-04  1.22888151E-04  1.24354108E-04  1.42965477E-04  1.61654251E-04  1.46162405E-04  1.16574055E-04  1.29822735E-04  1.49784241E-04  1.94464171E-04  3.55687576E-04
    3.62568298E-04  4.93477187E-04  4.11191110E-04  3.48832270E-04  4.11843696E-04  5.88087354E-04  6.82391195E-04  5.94156683E-04  4.67948733E-04  3.79024412E-04  3.09608593E-04  1.74871960E-04  8.22908164E-05  6.13016981E-05  5.32083461E-05  5.34369463E-05  6.88974556E-05  9.99468011E-05  1.58086469E-04  1.68938535E-04
    1.96052012E-04  1.83557714E-04  1.51169554E-04  1.09440342E-04  1.16777368E-04  1.65503023E-04  2.28052309E-04  2.47430377E-04  3.30261194E-04  4.64185647E-04  5.43749939E-04  5.46027124E-04  6.70505918E-04  8.58968804E-04  7.78962556E-04  4.44976030E-04  4.16150006E-04  4.58023260E-04  3.32343401E-04  2.82877779E-04
    1.49288964E-04  1.00871147E-04  9.75333673E-05  8.86742780E-05  8.13442751E-05  8.44075464E-05  1.24969181E-04  1.89148453E-04  2.55127038E-04  3.84856993E-04  5.84443723E-04  7.79142682E-04  5.88732813E-04  4.52372486E-04  3.53037489E-04  2.96393684E-04  1.86300546E-04  1.72063406E-04  1.50253940E-04  1.52062795E-04
    1.42414917E-04  1.48584580E-04  1.68825653E-04  1.90379452E-04  1.62759587E-04  1.85501530E-04  1.83728219E-04  1.53869908E-04  1.42569053E-04  1.65899422E-04  2.45816981E-04  3.08767786E-04  4.64816199E-04  6.01770925E-04  5.90910898E-04  4.92276650E-04  4.75813316E-04  4.31532970E-04  3.93889772E-04  3.58363672E-04
    2.44855533E-04  1.67845686E-04  1.29829675E-04  1.26276850E-04  1.47297079E-04  1.54210202E-04  1.28825457E-04  1.12495284E-04  7.95974933E-05  8.09818197E-05  8.98415291E-05  1.18822174E-04  1.50329634E-04  1.64229143E-04  1.40253716E-04  1.36409436E-04  1.33293361E-04  1.29547317E-04  1.75407300E-04  3.37380549E-04
    4.51796975E-04  4.65407533E-04  3.85420258E-04  3.23819823E-04  3.44189635E-04  4.66421621E-04  5.26009063E-04  5.18632128E-04  4.68820829E-04  3.31505134E-04  2.19072987E-04  1.37746287E-04  7.05540660E-05  5.17470277E-05  4.05702654E-05  4.31966427E-05  4.92856319E-05  7.59613559E-05  1.12397123E-04  1.24300631E-04
    1.31225314E-04  1.46340485E-04  1.42487778E-04  1.10569611E-04  1.10445025E-04  1.67804060E-04  2.50086213E-04  3.30802284E-04  4.02914478E-04  5.03897661E-04  6.22861750E-04  5.67849784E-04  7.03041988E-04  6.88095776E-04  6.26846270E-04  4.53852623E-04  3.94683974E-04  4.11018968E-04  3.35763688E-04  2.43219791E-04
    1.81665252E-04  1.15814632E-04  1.17788385E-04  9.82007908E-05  8.84480009E-05  9.10416860E-05  1.07754696E-04  1.46433374E-04  2.50325153E-04  3.47816160E-04  5.28656333E-04  7.19794873E-04  5.23124180E-04  3.65593618E-04  3.91314560E-04  3.06316154E-04  2.11224923E-04  1.75819765E-04  1.67346130E-04  1.40690465E-04
    1.24646886E-04  1.57780492E-04  2.05281817E-04  2.24541700E-04  1.71012740E-04  1.63848753E-04  1.77566084E-04  1.58607403E-04  1.16891915E-04  1.47587762E-04  2.10612407E-04  3.37633341E-04  4.68792607E-04  7.60234243E-04  8.37045610E-04  7.22124674E-04  5.50216967E-04  4.54114488E-04  3.72901835E-04  3.19281028E-04
    2.22866222E-04  1.56107092E-04  1.36861822E-04  1.27927015E-04  1.23863406E-04  1.23715890E-04  1.44051379E-04  1.17647988E-04  9.07340686E-05  7.30346261E-05  8.83289896E-05  1.10607934E-04  1.75957072E-04  1.95550550E-04  1.98885520E-04  1.76093797E-04  1.70921409E-04  1.37969487E-04  1.85689590E-04  3.42982360E-04
    3.86653649E-04  4.53888089E-04  3.83776899E-04  3.52035785E-04  3.53361543E-04  3.59690334E-04  4.11436103E-04  5.05845369E-04  4.09735329E-04  3.10832267E-04  1.62894336E-04  1.02823112E-04  4.71066339E-05  4.12559598E-05  3.51907950E-05  3.89929803E-05  5.16306171E-05  6.51421169E-05  1.04881198E-04  1.21435115E-04
    1.39873509E-04  1.52647713E-04  1.58330562E-04  1.29525246E-04  1.18740392E-04  1.65904008E-04  3.85446835E-04  4.54290067E-04  5.73846235E-04  5.31918953E-04  6.49620828E-04  5.95606623E-04  5.93760145E-04  5.27139523E-04  4.43666478E-04  3.87159633E-04  4.24729296E-04  3.83712974E-04  3.07729993E-04  2.67923367E-04
    1.92898182E-04  1.11505063E-04  9.70400064E-05  8.66827890E-05  6.73373030E-05  7.08274606E-05  9.17582444E-05  1.18527843E-04  2.02639574E-04  3.30847890E-04  4.85338342E-04  5.88895040E-04  4.98006963E-04  3.49701680E-04  3.31403326E-04  2.71176789E-04  1.68664566E-04  1.47475366E-04  1.32840259E-04  1.01488647E-04
    9.50405696E-05  1.12692002E-04  1.81442431E-04  1.85003057E-04  1.44926185E-04  1.57508496E-04  1.61587499E-04  1.45390820E-04  1.09436498E-04  1.46515675E-04  2.33942744E-04  2.95637680E-04  4.39251210E-04  6.10466776E-04  7.30504878E-04  6.39964237E-04  4.89316337E-04  3.79075799E-04  2.72651421E-04  2.14434986E-04
    1.68779791E-04  1.60649988E-04  1.54144616E-04  1.01655541E-04  1.10419585E-04  1.07408657E-04  1.32575405E-04  1.18469048E-04  9.10493836E-05  9.66812497E-05  1.17065979E-04  1.22016399E-04  1.86922340E-04  2.50066761E-04  2.48784179E-04  1.91016104E-04  1.64844722E-04  1.57418583E-04  1.84429409E-04  2.79201110E-04
    2.89011098E-04  3.23757169E-04  3.13890712E-04  2.77486119E-04  2.77930157E-04  3.05987715E-04  2.70441381E-04  3.12863540E-04  3.20903721E-04  2.58783228E-04  1.62226705E-04  8.56986430E-05  4.79453550E-05  4.32145051E-05  4.47835911E-05  4.18502163E-05  6.01847154E-05  9.07581310E-05  1.27196559E-04  1.36284276E-04
    1.66832863E-04  1.84011786E-04  1.79014508E-04  1.23404034E-04  1.24574960E-04  1.76283991E-04  3.05958993E-04  3.82517420E-04  4.30102548E-04  5.44241599E-04  6.09806794E-04  5.13698552E-04  5.03663026E-04  4.58847907E-04  4.16739281E-04  3.24296750E-04  3.23250419E-04  3.96320853E-04  3.20757666E-04  2.51148010E-04
    1.88821875E-04  1.05909866E-04  8.31288713E-05  7.41722441E-05  6.83189583E-05  6.44426416E-05  9.23047203E-05  1.17457590E-04  1.97741849E-04  2.38458749E-04  4.18923684E-04  5.00467171E-04  4.56814547E-04  3.52975982E-04  2.92711559E-04  2.30532375E-04  1.73476522E-04  1.33859083E-04  1.32333370E-04  1.10088411E-04
    9.55044479E-05  1.10362411E-04  1.37747129E-04  1.97730889E-04  1.55401945E-04  1.66384232E-04  1.35097485E-04  1.11391927E-04  7.67153540E-05  1.02934715E-04  1.43970200E-04  1.98423371E-04  2.60528743E-04  3.88255325E-04  4.70505630E-04  5.13816785E-04  4.55167301E-04  3.32788089E-04  2.49805305E-04  2.09647813E-04
    1.79401840E-04  1.66926394E-04  1.78223777E-04  1.31426621E-04  1.31217715E-04  1.20632420E-04  1.22484744E-04  9.83524724E-05  9.78351833E-05  1.00507962E-04  1.39132127E-04  1.47573432E-04  1.75824673E-04  2.35650741E-04  2.20582585E-04  1.77930898E-04  1.56213667E-04  1.30162886E-04  1.59276856E-04  2.02728108E-04
    1.84452237E-04  1.87235945E-04  1.93515231E-04  2.40722337E-04  2.85068374E-04  3.20921407E-04  3.12906612E-04  3.27405353E-04  3.67146635E-04  3.23927530E-04  1.90416143E-04  1.35424372E-04  8.15908668E-05  6.61303891E-05  5.63913511E-05  5.84713933E-05  8.02527637E-05  1.25358814E-04  1.53293667E-04  1.36762454E-04
    1.48957277E-04  1.89533363E-04  1.68749304E-04  1.45993215E-04  1.39489600E-04  1.94323340E-04  2.67088850E-04  2.68957517E-04  3.72660493E-04  4.84033938E-04  6.13787575E-04  5.61877855E-04  5.69545713E-04  5.53308479E-04  4.72602981E-04  3.62300529E-04  3.69215884E-04  4.07069851E-04  4.51630024E-04  3.18895691E-04
    1.21363345E-04  7.28133334E-05  6.60473909E-05  6.00686727E-05  5.76435937E-05  5.60715942E-05  8.90282978E-05  1.41435240E-04  2.20295482E-04  2.64727050E-04  3.45433645E-04  5.65299528E-04  4.56225596E-04  3.52414192E-04  3.01958307E-04  2.67759424E-04  1.84971398E-04  1.61409164E-04  1.25471433E-04  1.03512670E-04
    7.43692871E-05  7.68777774E-05  1.03057534E-04  1.29945869E-04  1.13796516E-04  1.11715221E-04  9.42027946E-05  8.15353192E-05  5.44252450E-05  6.03021117E-05  9.39056229E-05  1.17280995E-04  1.79618770E-04  2.37483778E-04  3.57698770E-04  4.67951716E-04  4.37509340E-04  3.77452441E-04  2.59677825E-04  2.19601788E-04
    1.37930370E-04  1.14565422E-04  1.24620013E-04  1.13410272E-04  1.20160923E-04  1.04705435E-04  9.98339270E-05  8.94880676E-05  6.80225355E-05  9.63520152E-05  1.15042764E-04  1.38632299E-04  1.37221607E-04  1.40723368E-04  1.57463919E-04  1.33145668E-04  1.23537684E-04  1.00855771E-04  1.21905235E-04  1.69622342E-04
    1.37337716E-04  1.23880040E-04  1.26759724E-04  1.55208748E-04  2.11329815E-04  2.87899014E-04  4.38240464E-04  5.28378925E-04  4.53050507E-04  3.21655735E-04  2.29760453E-04  1.85222023E-04  1.16206664E-04  8.70264037E-05  6.52528143E-05  7.86401517E-05  1.04762453E-04  1.49748844E-04  1.68531894E-04  1.66305374E-04
    1.56695948E-04  1.75198986E-04  1.64369551E-04  1.46011497E-04  1.33000669E-04  1.69366737E-04  2.44688402E-04  2.84960367E-04  3.20385813E-04  4.81102048E-04  6.24398407E-04  6.31745311E-04  7.06089310E-04  6.28633943E-04  6.17983408E-04  5.06006381E-04  5.12135741E-04  5.14043622E-04  5.32305440E-04  5.05462219E-04
    1.01000659E-04  6.48393484E-05  6.36038306E-05  6.03740934E-05  5.17252961E-05  6.53992483E-05  1.06816643E-04  1.82465782E-04  2.91529544E-04  3.52708823E-04  5.17816640E-04  6.54328683E-04  5.76094889E-04  3.65606645E-04  2.96737963E-04  2.44351655E-04  1.70434947E-04  1.30196630E-04  1.18595894E-04  8.04623888E-05
    7.22833796E-05  8.20430577E-05  1.02577970E-04  1.14323226E-04  9.24844408E-05  1.07975190E-04  1.12247761E-04  9.47673937E-05  5.99544799E-05  6.54133913E-05  8.86665425E-05  1.06730631E-04  1.38591857E-04  2.27843954E-04  2.70885290E-04  3.92330646E-04  3.78319771E-04  3.93387924E-04  2.79268587E-04  2.21904114E-04
    1.32839829E-04  1.08378726E-04  1.14651584E-04  1.00675506E-04  1.21697559E-04  1.35148858E-04  1.21374027E-04  8.71885830E-05  8.02776443E-05  1.01464730E-04  1.38910851E-04  1.15886417E-04  1.31806194E-04  1.43020307E-04  1.51154044E-04  1.05739585E-04  1.00650746E-04  8.98037741E-05  1.36242679E-04  1.50655609E-04
    1.44162954E-04  1.45972955E-04  1.33267976E-04  1.31247285E-04  1.68525165E-04  3.02790724E-04  5.32386147E-04  7.42779288E-04  6.05663526E-04  4.72203230E-04  3.51798943E-04  3.01828537E-04  1.68210434E-04  1.44022549E-04  1.10089469E-04  1.04636466E-04  1.21847529E-04  1.81189526E-04  1.78171025E-04  1.60037119E-04
    1.73303790E-04  1.62923745E-04  1.54216477E-04  1.30944892E-04  1.29090626E-04  1.80449320E-04  3.00383919E-04  3.30135703E-04  4.14747775E-04  5.30451515E-04  7.61383179E-04  6.71582487E-04  8.60405403E-04  8.55254081E-04  7.74082682E-04  5.60511290E-04  5.09869202E-04  5.55846034E-04  5.78147737E-04  5.29039235E-04
    1.06499910E-04  7.35910925E-05  6.56794496E-05  6.46429452E-05  6.58239004E-05  7.10541434E-05  1.19003210E-04  1.87000025E-04  3.19241004E-04  4.46936772E-04  6.61205186E-04  7.98749173E-04  6.17320924E-04  3.87550021E-04  3.10378093E-04  1.96038966E-04  1.43206980E-04  9.77169583E-05  8.90055836E-05  7.70130045E-05
    7.05349231E-05  8.47352652E-05  1.14787584E-04  1.20682797E-04  1.06587794E-04  1.09820802E-04  1.16371531E-04  9.90426479E-05  6.04040828E-05  6.05760415E-05  8.08157567E-05  9.50517510E-05  1.26102276E-04  1.92862706E-04  2.35331214E-04  3.17953827E-04  3.39243597E-04  3.55910839E-04  2.98581620E-04  2.30279576E-04
    1.47254492E-04  1.03224985E-04  1.05690031E-04  9.71096826E-05  1.27318196E-04  1.37204901E-04  1.32396432E-04  9.03899605E-05  8.11130455E-05  1.00024578E-04  1.08484712E-04  1.07542977E-04  1.44505298E-04  1.75400917E-04  1.72619940E-04  1.03155052E-04  1.01215259E-04  1.04253804E-04  1.38291414E-04  1.79950047E-04
    1.57905180E-04  1.99600328E-04  1.87900963E-04  1.61546862E-04  1.86800874E-04  2.82910940E-04  5.01462258E-04  6.35306626E-04  6.83542169E-04  4.96964333E-04  3.54392963E-04  2.90728574E-04  2.09369347E-04  1.74691875E-04  1.42333153E-04  1.19077412E-04  1.38986883E-04  1.65924778E-04  1.90553553E-04  1.21242316E-04
    1.47888372E-04  1.57134104E-04  1.31620173E-04  1.24192006E-04  1.33153146E-04  1.99375685E-04  2.69668015E-04  2.66852174E-04  3.19365636E-04  4.29933130E-04  4.86805795E-04  4.29273236E-04  4.77587173E-04  5.22754853E-04  5.07604977E-04  4.07251196E-04  3.87912496E-04  4.54975967E-04  4.35977784E-04  3.82546017E-04
    1.30778618E-04  8.87580031E-05  7.85829341E-05  8.25392614E-05  8.83660990E-05  9.64297550E-05  1.36852911E-04  2.31404731E-04  4.02092109E-04  4.76070995E-04  7.39997371E-04  7.24132790E-04  6.25346531E-04  3.27510863E-04  2.73185353E-04  1.85878057E-04  1.11491040E-04  8.36314314E-05  7.16387448E-05  6.75517820E-05
    6.68458311E-05  7.85276563E-05  1.28254194E-04  1.71981631E-04  1.40922485E-04  1.42158703E-04  1.48575643E-04  1.45030412E-04  8.42414284E-05  8.07274030E-05  9.11019503E-05  1.13428236E-04  1.19586045E-04  1.47472456E-04  1.97194420E-04  3.18108410E-04  3.18154636E-04  2.94869383E-04  2.86824900E-04  2.59887078E-04
    1.49106615E-04  1.03716471E-04  1.03312320E-04  1.01828229E-04  1.32750341E-04  1.33618291E-04  1.42073261E-04  1.41911343E-04  1.14845235E-04  1.23949591E-04  1.46357146E-04  1.55152922E-04  1.95354709E-04  2.13783046E-04  2.10874555E-04  1.62046948E-04  1.50643144E-04  1.41887998E-04  1.64778000E-04  2.09689664E-04
    2.21738600E-04  2.47723708E-04  2.84072204E-04  2.65758050E-04  2.51192653E-04  2.98049717E-04  4.82059395E-04  6.55906891E-04  6.40514934E-04  5.52295229E-04  3.98387573E-04  3.36503466E-04  2.65477498E-04  2.46119593E-04  2.22975003E-04  2.15815247E-04  2.10521868E-04  2.31792477E-04  2.10037403E-04  1.87388955E-04
    1.44164487E-04  1.39784306E-04  1.19036840E-04  1.06321719E-04  1.07274709E-04  1.53582148E-04  1.90147236E-04  1.87438606E-04  2.00977448E-04  2.76981051E-04  3.23027182E-04  2.62429086E-04  2.64474402E-04  2.45926370E-04  3.21789769E-04  3.35598529E-04  3.34098796E-04  3.57975964E-04  3.80325070E-04  3.87716884E-04
    2.41649193E-04  1.52930326E-04  1.21125833E-04  1.06948819E-04  9.86053829E-05  1.10586580E-04  1.55053982E-04  2.20310495E-04  3.69509176E-04  5.26757660E-04  6.74828000E-04  7.06217172E-04  5.29135742E-04  3.71980057E-04  2.68896817E-04  2.20689408E-04  1.29059093E-04  9.44350133E-05  8.33163438E-05  7.09714466E-05
    6.49587919E-05  9.83507333E-05  1.64472225E-04  2.25454877E-04  1.95865958E-04  1.77654171E-04  1.83030709E-04  1.72441180E-04  1.17992074E-04  1.15668248E-04  1.37652774E-04  1.19480092E-04  1.11274808E-04  1.30335015E-04  1.67453906E-04  2.80720159E-04  2.92315443E-04  2.70656168E-04  2.99190896E-04  3.10081231E-04
    1.88730674E-04  1.31791475E-04  1.17636997E-04  1.21202710E-04  1.31955239E-04  1.63780962E-04  1.46288140E-04  1.47375709E-04  1.41616643E-04  1.65649375E-04  1.86235487E-04  1.95918499E-04  1.96144813E-04  2.28139360E-04  2.13858174E-04  1.80405238E-04  1.74478540E-04  1.67255788E-04  1.77565133E-04  2.06025983E-04
    2.47098963E-04  3.30611267E-04  3.71625065E-04  3.25004018E-04  3.24335361E-04  3.79541458E-04  5.01642831E-04  5.49095032E-04  5.07061396E-04  4.61484230E-04  4.13781575E-04  3.45884927E-04  2.61938711E-04  3.16393814E-04  3.17799456E-04  2.72787562E-04  2.48524476E-04  2.91545796E-04  2.70399293E-04  1.90251554E-04
    1.51113384E-04  1.18753346E-04  8.50140323E-05  8.40993406E-05  5.94652736E-05  8.14990206E-05  1.26224280E-04  1.22387381E-04  1.41360711E-04  1.81704201E-04  2.11847655E-04  1.53516858E-04  1.41913393E-04  1.47168010E-04  1.74120902E-04  2.00203532E-04  2.07009778E-04  2.35365329E-04  2.80866477E-04  2.90628105E-04
    3.33512836E-04  2.40400065E-04  1.36792586E-04  1.14710808E-04  1.06265717E-04  1.17032112E-04  1.55389280E-04  2.08571524E-04  3.01133973E-04  4.85804291E-04  7.42106420E-04  7.41575552E-04  6.23298714E-04  4.48577790E-04  3.38116731E-04  2.23702592E-04  1.48993633E-04  1.06612047E-04  8.66520445E-05  6.00600973E-05
    5.57769297E-05  7.07220911E-05  1.57429540E-04  2.09585604E-04  2.29042837E-04  2.09698414E-04  2.08731992E-04  1.96660098E-04  1.48623840E-04  1.58254612E-04  1.72114839E-04  1.56167354E-04  1.42603471E-04  1.72030656E-04  1.94738939E-04  2.50424204E-04  3.00777148E-04  3.30158900E-04  3.11808348E-04  3.47808336E-04
    1.93018025E-04  1.47381994E-04  1.26008997E-04  1.17048206E-04  1.48663295E-04  1.61263694E-04  1.57148486E-04  1.24064316E-04  1.31331095E-04  1.85401594E-04  2.12781112E-04  2.12791964E-04  2.76476623E-04  2.64478793E-04  2.75670302E-04  1.89783680E-04  2.13294023E-04  1.87986327E-04  1.91123801E-04  1.70689637E-04
    2.12329531E-04  2.78883002E-04  3.08204434E-04  2.61492729E-04  3.07553689E-04  4.51145525E-04  5.20588011E-04  4.43509522E-04  3.72258697E-04  3.82161352E-04  3.40050060E-04  3.46906052E-04  2.89461681E-04  3.29864024E-04  3.49943681E-04  3.15993484E-04  3.16563600E-04  4.25436928E-04  3.26633283E-04  1.94399809E-04
    1.33760285E-04  1.11946332E-04  6.92626880E-05  4.43529453E-05  4.46471892E-05  4.64063691E-05  8.21706361E-05  8.85697340E-05  1.04046071E-04  1.35063978E-04  1.37043141E-04  9.26632578E-05  1.00346740E-04  9.39211908E-05  1.08325911E-04  1.03436199E-04  1.51957815E-04  2.08847601E-04  2.48843197E-04  2.17343173E-04
    4.19225171E-04  2.61997478E-04  1.80059466E-04  1.35199740E-04  1.23432090E-04  1.23555640E-04  1.45571914E-04  2.17287898E-04  3.43483145E-04  4.28084513E-04  7.26900346E-04  8.10420815E-04  6.35198922E-04  4.04801982E-04  3.19046725E-04  2.37895015E-04  1.66614037E-04  1.09035562E-04  9.07809501E-05  5.41019606E-05
    4.72712466E-05  5.24861080E-05  1.00618240E-04  1.82092585E-04  1.99473484E-04  1.98091664E-04  2.03453060E-04  1.98173160E-04  1.43045992E-04  1.40056813E-04  1.75988864E-04  1.78684949E-04  1.77985373E-04  1.79736373E-04  1.81930948E-04  2.61334350E-04  2.83099754E-04  3.24954317E-04  3.31839039E-04  2.86804381E-04
    1.81218006E-04  1.16762713E-04  1.31387608E-04  1.19952019E-04  1.44100195E-04  1.63967266E-04  1.61485938E-04  1.29742658E-04  1.12611385E-04  1.31968125E-04  2.19368185E-04  2.49281679E-04  2.90902961E-04  2.65697163E-04  2.38031357E-04  1.92095788E-04  1.55653646E-04  1.24745349E-04  1.34155313E-04  1.46918989E-04
    1.47844982E-04  1.57592452E-04  1.64590182E-04  1.84787097E-04  2.35052637E-04  3.85867578E-04  5.75337191E-04  5.70923255E-04  4.05488048E-04  3.24080196E-04  3.16487836E-04  2.92847933E-04  2.81208707E-04  2.53124535E-04  2.65964398E-04  2.61538878E-04  2.75266710E-04  2.82054511E-04  2.42521784E-04  1.59002667E-04
    1.12922528E-04  7.31944566E-05  4.85355554E-05  3.19236237E-05  2.54462537E-05  2.98286181E-05  4.08863528E-05  5.29591020E-05  7.73264078E-05  9.96197486E-05  8.98579945E-05  6.82380100E-05  6.43862872E-05  6.49693943E-05  6.01933205E-05  6.79774801E-05  9.64952336E-05  1.49333798E-04  1.81990522E-04  1.54756894E-04
    3.12740351E-04  2.57909411E-04  1.72601294E-04  1.69261908E-04  1.38600476E-04  1.08054606E-04  1.37642665E-04  1.88122328E-04  3.32878027E-04  4.93868498E-04  6.81807810E-04  8.46806095E-04  6.68752355E-04  4.27116837E-04  3.06596246E-04  2.39509763E-04  1.67087297E-04  9.61277997E-05  7.91060925E-05  5.33375196E-05
    3.47580062E-05  3.53883842E-05  5.46783117E-05  9.30166735E-05  1.12414720E-04  1.32953525E-04  1.36570923E-04  1.49539259E-04  1.19500732E-04  1.34932358E-04  1.81647446E-04  2.16674417E-04  2.19338566E-04  2.34724544E-04  2.39036653E-04  3.22287518E-04  3.15138630E-04  2.93221208E-04  2.83031285E-04  2.48957848E-04
    1.37629228E-04  1.16344104E-04  1.20093986E-04  1.07814287E-04  1.18685511E-04  1.32879280E-04  1.42866088E-04  1.28744698E-04  9.06786918E-05  1.03896183E-04  1.44214004E-04  2.10718161E-04  2.24263028E-04  2.30044579E-04  2.48292817E-04  1.76061532E-04  1.36493392E-04  9.82731673E-05  1.07001067E-04  1.44358367E-04
    1.46453723E-04  1.46307437E-04  1.49175229E-04  1.70954635E-04  2.04872477E-04  3.09188055E-04  5.82496074E-04  6.61407113E-04  5.08002371E-04  3.27949089E-04  2.51764931E-04  2.29131394E-04  1.85801902E-04  2.33190103E-04  2.31860995E-04  2.27430409E-04  1.96009029E-04  2.26378626E-04  1.87380172E-04  1.55666526E-04
    9.90408599E-05  7.09209160E-05  4.27195258E-05  3.23041214E-05  1.93116317E-05  1.89241448E-05  2.50850129E-05  3.29537255E-05  4.22905585E-05  7.04478092E-05  6.57032038E-05  5.45623900E-05  5.88767605E-05  5.79515451E-05  6.16151054E-05  5.56420171E-05  7.53348956E-05  1.10507654E-04  1.48742954E-04  1.32978099E-04
    2.02410114E-04  1.81024472E-04  1.87496654E-04  1.82364623E-04  1.70507172E-04  1.33198449E-04  1.30379898E-04  2.04520633E-04  3.13670121E-04  5.11474990E-04  7.01857440E-04  6.71328696E-04  6.00721485E-04  4.82223331E-04  2.78846891E-04  1.75378693E-04  1.07944298E-04  7.78116837E-05  5.79601284E-05  4.19187855E-05
    2.65009370E-05  2.60974753E-05  4.00838851E-05  6.75782165E-05  8.53777459E-05  1.11655402E-04  1.28452001E-04  1.32868578E-04  1.21852525E-04  1.44298920E-04  1.88763675E-04  2.15028702E-04  2.55871080E-04  2.85067316E-04  2.66752859E-04  3.28773673E-04  3.19561019E-04  3.01237991E-04  2.35683276E-04  1.92398907E-04