# File generated by Flopy version 3.5.0 on 03/08/2024 at 15:39:53.
BEGIN griddata
  strt
    INTERNAL  FACTOR  1.0
        15.00000000      15.00000000      15.00000000      15.00000000      15.00000000      15.00000000      15.00000000      15.00000000      15.00000000      15.00000000      15.00000000      15.00000000      15.00000000      15.00000000      15.00000000      15.00000000      15.00000000      15.00000000      15.00000000      15.00000000
        15.00000000      15.00000000      15.00000000      15.00000000      15.00000000      15.00000000      15.00000000      15.00000000      15.00000000      15.00000000      15.00000000      15.00000000      15.00000000      15.00000000      15.00000000      15.00000000      15.00000000      15.00000000      15.00000000      15.00000000
        15.00000000      15.00000000      15.00000000      15.00000000      15.00000000      15.00000000      15.00000000      15.00000000      15.00000000      15.00000000      15.00000000      15.00000000      15.00000000      15.00000000      15.00000000      15.00000000      15.00000000      15.00000000      15.00000000      15.00000000
        15.00000000      15.00000000      15.00000000      15.00000000      15.00000000      15.00000000      15.00000000      15.00000000      15.00000000      15.00000000      15.00000000      15.00000000      15.00000000      15.00000000      15.00000000      15.00000000      15.00000000      15.00000000      15.00000000      15.00000000
        15.00000000      15.00000000      15.00000000      15.00000000      15.00000000      15.00000000      15.00000000      15.00000000      15.00000000      15.00000000      15.00000000      15.00000000      15.00000000      15.00000000      15.00000000      15.00000000      15.00000000      15.00000000      15.00000000      15.00000000
        15.37912999      15.32743662      15.30214782      15.28799957      15.27862731      15.26873100      15.26061367      15.24672299      15.23889898      15.24196650      15.25539531      15.27327505      15.27490359      15.26573645      15.24075965      15.22002913      15.19867046      15.18409139      15.16838047      15.15204174
        15.13164429      15.11177882      15.09538853      15.08641679      15.08221233      15.08221729      15.07949330      15.07449359      15.06862301      15.06356650      15.05643971      15.04988907      15.04712746      15.04704581      15.04768314      15.04718309      15.04778049      15.04883615      15.04832117      15.04672325
        15.04484207      15.04585471      15.04461733      15.04207361      15.03854997      15.03805896      15.03903579      15.04146947      15.04487316      15.04866049      15.05012902      15.05172030      15.05270741      15.05455008      15.05546752      15.05711078      15.05777391      15.05689608      15.05489620      15.05222283
        15.05336305      15.05519112      15.05558338      15.05658091      15.05883228      15.06032063      15.06066087      15.06123423      15.06182554      15.06240803      15.06310603      15.06364031      15.06555246      15.07079386      15.07522322      15.07925154      15.08237771      15.08537083      15.08332749      15.08111296
        15.07942369      15.08024395      15.07945758      15.07640893      15.06909444      15.06222398      15.05772028      15.05399102      15.05051092      15.04904486      15.04839965      15.04705669      15.04581078      15.04546123      15.04374967      15.04031754      15.03795628      15.03690293      15.03788518      15.03826949
        15.64473888      15.61826704      15.59475959      15.58308665      15.56740403      15.54564027      15.52645379      15.51281279      15.49485732      15.48935053      15.49662624      15.51303634      15.50830210      15.48862841      15.45645858      15.41808489      15.37435431      15.33824627      15.31293125      15.28878307
        15.25931069      15.22359519      15.19207692      15.17004418      15.15616908      15.14727347      15.14203069      15.13652900      15.12765890      15.11989878      15.11267023      15.10504224      15.09946690      15.09585553      15.09364822      15.09512505      15.09672492      15.09820627      15.09630559      15.09465600
        15.09228717      15.09273102      15.09213992      15.08914854      15.08377633      15.07965459      15.07925798      15.08346197      15.09087975      15.09901494      15.10554988      15.10950360      15.11105935      15.10979171      15.10878697      15.10810537      15.10807206      15.10464064      15.10086224      15.09750236
        15.09580820      15.09556318      15.09633833      15.09849075      15.10252717      15.10515249      15.10553824      15.10737595      15.10941458      15.11094850      15.11190348      15.11389156      15.11500016      15.11725893      15.12157288      15.12642892      15.12907187      15.13122560      15.13104770      15.13096044
        15.12954307      15.12754183      15.12636457      15.12402611      15.11704446      15.10637880      15.09891306      15.09316656      15.08854337      15.08540981      15.08438749      15.08531108      15.08575401      15.08526297      15.08590478      15.08626736      15.08505803      15.08280141      15.08180736      15.08235465
        15.92868036      15.91761410      15.90393911      15.89274907      15.87508975      15.84442600      15.81591486      15.78992874      15.76349014      15.74010943      15.72931066      15.72185455      15.70598140      15.67822076      15.64855942      15.59886657      15.53348052      15.47137968      15.43529385      15.40178765
        15.36693295      15.32643017      15.29001023      15.25941274      15.23212215      15.21234678      15.20046556      15.19188874      15.18187598      15.17188122      15.16552955      15.15881852      15.15152019      15.14595140      15.14191372      15.14135574      15.14130961      15.14139496      15.14046252      15.13861324
        15.13718119      15.13748283      15.13914719      15.13810993      15.13534134      15.13098568      15.12935837      15.13116992      15.13835247      15.14835284      15.15884110      15.16330764      15.16238112      15.15819940      15.15385522      15.14922203      15.14610605      15.14271854      15.13873918      15.13556504
        15.13307409      15.13116898      15.13099491      15.13270815      15.13510022      15.13875761      15.14246254      15.14564750      15.14778651      15.14836262      15.14905491      15.14974531      15.15105123      15.15188492      15.15410898      15.15698331      15.15871400      15.15957948      15.16104292      15.16141665
        15.16059795      15.15737277      15.15569258      15.15343507      15.14800251      15.13911320      15.13147809      15.12633580      15.12169541      15.11836159      15.11723029      15.11946729      15.12275711      15.12468774      15.12739201      15.13098980      15.13151513      15.12869340      15.12571996      15.12464775
        16.26246874      16.24570906      16.22861777      16.20907531      16.19006323      16.15906075      16.12656407      16.08108393      16.03391651      15.99306377      15.95799173      15.92687852      15.90202278      15.86746745      15.83036367      15.77449354      15.69896224      15.61688826      15.55759377      15.51117219
        15.46552309      15.42441940      15.38646272      15.35207719      15.31643391      15.28669054      15.26616518      15.25094084      15.23681778      15.22427828      15.21520627      15.20906685      15.20408168      15.19926707      15.19361949      15.18921535      15.18704262      15.18618465      15.18576918      15.18387343
        15.18346720      15.18410356      15.18508864      15.18509138      15.18597619      15.18560279      15.18270131      15.18009384      15.18275455      15.19219970      15.20254177      15.20705078      15.20478756      15.19974985      15.19356448      15.18647665      15.18095557      15.17730902      15.17343805      15.17091628
        15.16874760      15.16701477      15.16461474      15.16323492      15.16526651      15.16930395      15.17466497      15.17837252      15.18048929      15.18073760      15.18042110      15.18033433      15.18091414      15.18141755      15.18104883      15.18078897      15.18179686      15.18289145      15.18317468      15.18265866
        15.18206300      15.18100040      15.17905765      15.17685989      15.17303847      15.16831876      15.16335324      15.15934014      15.15582573      15.15380342      15.15267656      15.15347524      15.15568896      15.15859476      15.16178888      15.16424091      15.16549755      15.16383438      15.16154877      15.15966586
        16.60420486      16.58339927      16.55021998      16.52754273      16.50618614      16.46655356      16.41253669      16.35559835      16.28730718      16.23156471      16.18526232      16.14408712      16.10446582      16.05844793      16.00526852      15.94614974      15.86311844      15.76980100      15.68447392      15.62079854
        15.56528052      15.51962614      15.48253002      15.44835668      15.40940260      15.37328882      15.34567325      15.32228205      15.29984381      15.27993801      15.26903580      15.26268372      15.25969520      15.25627004      15.25033318      15.24417986      15.23838597      15.23364442      15.23112835      15.23019237
        15.22950926      15.22890453      15.22822470      15.22870476      15.23047514      15.23204045      15.22925763      15.22647378      15.22601538      15.23184059      15.23947615      15.24483886      15.24500773      15.24082723      15.23504939      15.22820831      15.21967877      15.21205280      15.20571946      15.20278602
        15.20083877      15.19825078      15.19581744      15.19393953      15.19522920      15.19812311      15.20182446      15.20615244      15.20921292      15.20953899      15.20820598      15.20820258      15.20828079      15.20810359      15.20677289      15.20575024      15.20507028      15.20521691      15.20437214      15.20337493
        15.20297229      15.20371236      15.20342377      15.20233423      15.19971958      15.19699580      15.19444536      15.19182688      15.18860446      15.18609930      15.18451301      15.18302449      15.18271037      15.18307014      15.18536315      15.18803116      15.18956271      15.18980912      15.18942786      15.18855049
        16.89524335      16.88053092      16.84794086      16.82256365      16.79026804      16.73551942      16.64930759      16.57439854      16.50137936      16.43358872      16.38020910      16.33857358      16.28944240      16.23562722      16.17814490      16.11415957      16.02547685      15.92095234      15.82150149      15.73459038
        15.66608412      15.61382449      15.57633844      15.54296149      15.50452959      15.46467684      15.43492937      15.40523052      15.37293148      15.34460079      15.32764463      15.31868412      15.31254881      15.30961689      15.30623262      15.30061382      15.29231184      15.28360799      15.27751135      15.27525107
        15.27349681      15.27343343      15.27350023      15.27329568      15.27218838      15.27288703      15.27368201      15.27345887      15.27407630      15.27604814      15.28102814      15.28477657      15.28637617      15.28399746      15.27957527      15.27217865      15.26107421      15.24796160      15.23750416      15.23124034
        15.22792883      15.22524444      15.22433769      15.22486028      15.22579406      15.22673032      15.22958880      15.23446303      15.23785739      15.23915339      15.23763264      15.23734180      15.23680996      15.23700398      15.23635092      15.23542841      15.23434207      15.23255363      15.23111386      15.23001320
        15.22933695      15.22967776      15.23008657      15.22936882      15.22651485      15.22344152      15.22189284      15.21945787      15.21600773      15.21217052      15.20990308      15.20774270      15.20569074      15.20452970      15.20584459      15.20960577      15.21259784      15.21378138      15.21515587      15.21605895
        17.14408683      17.12627198      17.09842135      17.07160681      17.03028799      16.96945533      16.88039730      16.78403194      16.70268978      16.63131012      16.57062889      16.52293178      16.48008856      16.42005372      16.35534832      16.28232739      16.18656996      16.07141266      15.96161416      15.85825738
        15.77022895      15.70490005      15.66368689      15.62953882      15.59331598      15.55539199      15.52224799      15.49073977      15.45184909      15.41580409      15.38963952      15.37206613      15.36075637      15.35501212      15.35271772      15.34971985      15.34318298      15.33502762      15.32687299      15.32167066
        15.32062709      15.32272544      15.32382965      15.32011946      15.31785010      15.31726284      15.31968314      15.32112364      15.32398067      15.32742970      15.33013912      15.32881665      15.32757773      15.32535023      15.32080525      15.31139037      15.29906640      15.28462360      15.27038974      15.26026140
        15.25415577      15.25154916      15.25218503      15.25464779      15.25728262      15.25929891      15.26151303      15.26575354      15.27016012      15.27332961      15.27434213      15.27401105      15.27402918      15.27369285      15.27252492      15.26977917      15.26852199      15.26608159      15.26296806      15.26024992
        15.25869337      15.25744959      15.25613320      15.25400513      15.25068915      15.24626169      15.24259587      15.23931426      15.23616845      15.23361624      15.23140299      15.22957064      15.22775282      15.22735921      15.22877308      15.23162612      15.23458098      15.23722224      15.23948254      15.24105313
        17.37098743      17.35703888      17.33118007      17.30943797      17.27556350      17.21270201      17.12950860      17.02761006      16.92776094      16.84068237      16.77774235      16.72629714      16.68291582      16.62074860      16.53805602      16.45395607      16.34960654      16.22229694      16.10148756      15.98695565
        15.88274742      15.80130307      15.74881896      15.71650612      15.68234239      15.64667564      15.60967943      15.57361900      15.52942909      15.48386543      15.44900940      15.42361236      15.40632233      15.39695156      15.39408014      15.39425829      15.39288804      15.38812152      15.38197335      15.37694095
        15.37464988      15.37486590      15.37528688      15.37242993      15.37054219      15.36844366      15.36701566      15.36753521      15.37136398      15.37578130      15.37679438      15.37257991      15.36624015      15.36184124      15.35585408      15.34656900      15.33400971      15.31937977      15.30430308      15.29174705
        15.28368053      15.27965165      15.28096715      15.28604343      15.29213286      15.29777084      15.30231750      15.30618512      15.31100596      15.31449857      15.31711313      15.31873231      15.31860684      15.31515040      15.31081006      15.30600726      15.30230146      15.29896758      15.29371925      15.28847356
        15.28438155      15.28164607      15.27874371      15.27592024      15.27177996      15.26633257      15.26037854      15.25627479      15.25360657      15.25227293      15.25112204      15.25044063      15.25019716      15.25094307      15.25244517      15.25440716      15.25673919      15.25949425      15.26239920      15.26362229
        17.59791924      17.59540625      17.58615568      17.56877206      17.53959780      17.47595120      17.38932843      17.29149033      17.18591071      17.08533583      17.00473805      16.95564518      16.89954521      16.82810929      16.73663439      16.63923880      16.52411256      16.38513338      16.24594662      16.12035854
        16.00212417      15.90878388      15.84506554      15.80670921      15.77374204      15.73859327      15.70352290      15.66670614      15.61778958      15.56186892      15.51840468      15.48540939      15.46279943      15.44927723      15.44581678      15.44790748      15.44954155      15.44934918      15.44553506      15.44022922
        15.43193519      15.42574844      15.42388667      15.42432483      15.42341007      15.42103794      15.41754131      15.41648401      15.41729643      15.42012205      15.41916905      15.41478819      15.40574323      15.39757929      15.39139907      15.38278524      15.37137766      15.35648464      15.34222753      15.33078671
        15.32220274      15.31705853      15.31735456      15.32242563      15.33011632      15.33871661      15.34800071      15.35297564      15.35490239      15.35606518      15.35829310      15.36090248      15.35951769      15.35418727      15.34627769      15.33947911      15.33254259      15.32655872      15.32003639      15.31349739
        15.30703590      15.30241114      15.29870879      15.29542035      15.29049054      15.28478489      15.27943330      15.27520072      15.27180269      15.27006592      15.26928464      15.26945015      15.27012662      15.27117776      15.27290291      15.27511243      15.27722523      15.27894035      15.28130442      15.28294118
        17.88526354      17.89129416      17.88986004      17.86925919      17.82369147      17.75270568      17.64488971      17.53950581      17.43755873      17.34491148      17.25565574      17.19094833      17.12553196      17.03560035      16.93088926      16.81930438      16.68769739      16.53812862      16.38802430      16.24720090
        16.12505972      16.02758346      15.96075239      15.91398192      15.87810763      15.84608938      15.81806847      15.78393268      15.73480532      15.67246950      15.61783834      15.57414853      15.54099077      15.52153938      15.51085037      15.50969103      15.51053483      15.51296347      15.51065449      15.50452127
        15.49299712      15.48240724      15.47678929      15.47599311      15.47712382      15.47771874      15.47513124      15.47202456      15.47023090      15.46999010      15.46684765      15.46033380      15.45343184      15.44523965      15.43777244      15.42701032      15.41541117      15.40204291      15.38943442      15.37865464
        15.37289486      15.36943717      15.36705910      15.36651179      15.37075453      15.37910962      15.38776154      15.39225629      15.39253955      15.39257200      15.39398308      15.39458308      15.39187086      15.38664123      15.37803108      15.36844361      15.35911229      15.35113020      15.34335098      15.33590668
        15.32887784      15.32231891      15.31738675      15.31272041      15.30754192      15.30199031      15.29731073      15.29331151      15.28939153      15.28652739      15.28503331      15.28456980      15.28518915      15.28636337      15.28814728      15.29018877      15.29204143      15.29374960      15.29529311      15.29673334
        18.25362815      18.25590458      18.23527284      18.19798351      18.13023381      18.01957471      17.87735303      17.74753198      17.64502618      17.55749041      17.47624295      17.40015376      17.33024455      17.23456498      17.11917417      16.98840232      16.84495375      16.67748278      16.51944448      16.37138064
        16.24845053      16.15647576      16.09227994      16.04458814      16.00535818      15.97003629      15.94231116      15.90906093      15.85902790      15.79498247      15.73340563      15.68104491      15.63521164      15.60500104      15.58564691      15.57707798      15.57487135      15.57494901      15.57461037      15.56956434
        15.55999215      15.54709558      15.53825559      15.53485991      15.53536229      15.53619080      15.53472004      15.53083100      15.52831543      15.52382682      15.51874740      15.51299512      15.50928181      15.50378538      15.49499238      15.48202399      15.46885935      15.45526231      15.44164093      15.43107724
        15.42733629      15.42676556      15.42361603      15.41827611      15.41571777      15.41714897      15.41985869      15.42142257      15.42244355      15.42271184      15.42254750      15.42153409      15.41885924      15.41429969      15.40682798      15.39568182      15.38439444      15.37459616      15.36616326      15.35642001
        15.34854303      15.34130556      15.33483943      15.32906863      15.32309445      15.31709269      15.31191276      15.30752546      15.30353687      15.29999070      15.29743250      15.29611058      15.29592188      15.29701214      15.29872935      15.30100314      15.30325194      15.30528912      15.30661998      15.30748374
        18.62548545      18.61470895      18.57122497      18.50792779      18.41413807      18.26327173      18.08297764      17.92955482      17.81450733      17.72225034      17.64240258      17.57012639      17.50163523      17.40953692      17.29973976      17.16793887      17.01133308      16.83322022      16.65541881      16.50223976
        16.37312419      16.27560625      16.21373082      16.17136472      16.13178002      16.09086954      16.05688588      16.02463736      15.97667427      15.91317330      15.84866702      15.79078588      15.73424803      15.69044704      15.66534092      15.65137429      15.64364212      15.63832194      15.63787476      15.63495893
        15.62604746      15.61240483      15.60122454      15.59554389      15.59232631      15.59002116      15.58937811      15.58918193      15.58527547      15.57939518      15.57368089      15.56977203      15.56478203      15.55845932      15.55037576      15.53989998      15.52561852      15.50959742      15.49292299      15.48287422
        15.47787449      15.47515584      15.47236568      15.46652990      15.45912809      15.45282251      15.44977275      15.44824041      15.44788161      15.44760107      15.44657195      15.44468180      15.44241528      15.43833599      15.43198374      15.42211019      15.41067246      15.39978227      15.39042201      15.37980185
        15.36852522      15.35976151      15.35166587      15.34400373      15.33635171      15.32960004      15.32421622      15.31981311      15.31550778      15.31203246      15.30926363      15.30746486      15.30641247      15.30691538      15.30916140      15.31229372      15.31504830      15.31701690      15.31857063      15.31971001
        18.94048196      18.91851425      18.85847815      18.76607465      18.63948026      18.46958249      18.26645535      18.08948956      17.96361958      17.86843294      17.78720388      17.71984369      17.65553263      17.57486120      17.46893894      17.35185470      17.19346122      17.00737235      16.81585895      16.64158276
        16.49521243      16.38457478      16.31412709      16.27214905      16.23306330      16.19079447      16.15327381      16.12046650      16.07750350      16.01957964      15.95738330      15.89573930      15.83458673      15.78179846      15.74691514      15.72712707      15.71481632      15.70537227      15.70174255      15.69880245
        15.68981694      15.67664377      15.66316777      15.65418512      15.64679487      15.64320730      15.64009074      15.63930002      15.63585715      15.63051885      15.62540071      15.61987825      15.61192608      15.60431317      15.59636789      15.58771838      15.57398418      15.55668549      15.53847538      15.52527207
        15.51841837      15.51294976      15.50871398      15.50316996      15.49583250      15.48781534      15.48086551      15.47600740      15.47275367      15.47144142      15.47016889      15.46768758      15.46432263      15.46059717      15.45492756      15.44644728      15.43560253      15.42511411      15.41441945      15.40338820
        15.39025221      15.37826806      15.36776166      15.35836435      15.34912422      15.34173079      15.33700407      15.33323984      15.32959748      15.32621521      15.32373351      15.32185208      15.32070128      15.32109500      15.32275168      15.32560283      15.32834082      15.33044520      15.33228570      15.33334240
        19.15499875      19.13468583      19.07113369      18.97049636      18.82936173      18.64433952      18.43269410      18.24010478      18.09689815      18.00133271      17.92546635      17.86386951      17.80187120      17.72966172      17.62932968      17.51321466      17.36556943      17.17716460      16.97830144      16.78208652
        16.60616416      16.47160444      16.39027367      16.34193589      16.30425049      16.26313473      16.22412630      16.18840588      16.14753879      16.09576782      16.04296878      15.98745466      15.92934251      15.87576009      15.83211258      15.80219655      15.78637878      15.77442207      15.76419481      15.75683835
        15.74634618      15.73283049      15.71806358      15.70598861      15.69680060      15.69089758      15.68518529      15.67909287      15.67452119      15.66987292      15.66473250      15.65894761      15.65208639      15.64414891      15.63619620      15.62556285      15.61224640      15.59541508      15.57733443      15.56116964
        15.55059235      15.54283484      15.53636394      15.53021491      15.52473138      15.51921585      15.51214535      15.50493188      15.49937089      15.49601390      15.49330066      15.48999261      15.48524916      15.48003789      15.47403358      15.46579704      15.45585157      15.44619602      15.43603403      15.42364818
        15.41032621      15.39749345      15.38510626      15.37411442      15.36495648      15.35640886      15.35180714      15.34908025      15.34649543      15.34375611      15.34150046      15.34050132      15.34054869      15.34079364      15.34108726      15.34236184      15.34507876      15.34715337      15.34819238      15.34823403
        19.28827552      19.27468392      19.22770450      19.13798623      19.00178725      18.81183027      18.59166012      18.39187611      18.23674394      18.12537404      18.05141830      17.99273999      17.93208116      17.85636380      17.76220722      17.64537885      17.50086840      17.31794370      17.12084541      16.91032327
        16.71083423      16.54837127      16.44690438      16.39383737      16.35403786      16.31515044      16.27638397      16.23967215      16.19779058      16.14908898      16.10247325      16.05732465      16.00774279      15.95717894      15.91189056      15.87683241      15.85383284      15.83713779      15.82105440      15.80691426
        15.79344619      15.77775844      15.76389828      15.75042268      15.74033134      15.73271027      15.72661874      15.71831849      15.70905548      15.70151349      15.69718282      15.69235325      15.68689318      15.67955743      15.67200776      15.66141071      15.64668041      15.62985455      15.61315984      15.59754309
        15.58297711      15.57111533      15.56248640      15.55636663      15.55100308      15.54712372      15.54341903      15.53833377      15.53146854      15.52456495      15.51870415      15.51276882      15.50633849      15.49844888      15.49104401      15.48279360      15.47321232      15.46376544      15.45465163      15.44337492
        15.43017519      15.41733591      15.40535901      15.39317281      15.38312336      15.37491257      15.36926345      15.36738762      15.36613718      15.36476130      15.36351455      15.36431242      15.36489024      15.36525899      15.36450075      15.36475082      15.36534836      15.36600657      15.36605582      15.36567632
        19.38977279      19.38322781      19.35433301      19.28554402      19.16181565      18.97396804      18.74459132      18.52880507      18.37036502      18.25133725      18.16380585      18.10364748      18.04221394      17.96413586      17.86555666      17.75015795      17.60873387      17.42885756      17.23645870      17.02781172
        16.81263925      16.63142684      16.50530235      16.43975749      16.39597280      16.35638544      16.31770720      16.28155307      16.24054164      16.19293846      16.14909956      16.10989969      16.06828758      16.02381442      15.98039314      15.94507630      15.91674572      15.89258302      15.87260920      15.85442674
        15.83788377      15.82040428      15.80467530      15.79050186      15.77861998      15.77083107      15.76461329      15.75728119      15.74534772      15.73402710      15.72679801      15.72230389      15.71674421      15.71182811      15.70633694      15.69807486      15.68450119      15.66798464      15.65183695      15.63894688
        15.62480847      15.61094898      15.59918717      15.58977714      15.58117118      15.57538416      15.57362716      15.57151890      15.56615878      15.55679688      15.54696123      15.53734689      15.52808578      15.51934343      15.51053421      15.50158743      15.49155587      15.48218700      15.47351002      15.46398610
        15.45216067      15.44002384      15.42846033      15.41808784      15.40750850      15.39951628      15.39333631      15.39072714      15.38925077      15.38923364      15.38948774      15.39148704      15.39288248      15.39372529      15.39324261      15.39142138      15.38870363      15.38678912      15.38600274      15.38578683
        19.48837225      19.48706272      19.46816213      19.41382869      19.31186276      19.13518905      18.89545353      18.66356309      18.48623052      18.36440199      18.26956073      18.19833051      18.13537627      18.06046920      17.95846194      17.83621224      17.69317869      17.51525365      17.32000028      17.12121350
        16.90672830      16.71684416      16.57746752      16.49538627      16.44323385      16.39987235      16.35995621      16.32175359      16.28054967      16.23339392      16.18970180      16.15216831      16.11538405      16.07733584      16.03823345      16.00363227      15.97515466      15.94794990      15.92301316      15.90257695