# File generated by Flopy version 3.5.0 on 03/08/2024 at 15:39:54.
BEGIN options
END options

BEGIN griddata
  icelltype
    CONSTANT  0
  k
    INTERNAL  FACTOR  1.0
    4.60046305E-05  5.74902776E-05  8.29306956E-05  8.67070260E-05  7.90797019E-05  1.18558554E-04  1.83496022E-04  3.61474082E-04  4.62126536E-04  7.62672461E-04  8.78921254E-04  9.38964603E-04  8.16221808E-04  7.28646211E-04  7.70067308E-04  6.98471302E-04  6.51359597E-04  4.95714920E-04  3.28808963E-04  1.76312430E-04
    1.75752532E-04  2.32312911E-04  2.92037645E-04  2.98948851E-04  2.75484604E-04  2.39959762E-04  2.52928400E-04  2.06054760E-04  1.83759738E-04  2.02262997E-04  2.24140761E-04  2.31613328E-04  2.46082384E-04  1.91377478E-04  1.80203807E-04  1.39162111E-04  1.29364604E-04  1.04706353E-04  8.63611672E-05  9.48707660E-05
    7.51646705E-05  5.19420426E-05  4.45800017E-05  6.38551508E-05  1.16305040E-04  1.36350035E-04  1.51218347E-04  1.18430719E-04  1.07280341E-04  7.99207888E-05  7.33392834E-05  6.14561646E-05  7.37836804E-05  1.11314266E-04  1.29985777E-04  1.15382057E-04  9.43905736E-05  8.20568372E-05  9.24839525E-05  1.12988742E-04
    7.25155706E-05  6.45353219E-05  7.48083134E-05  6.87387193E-05  6.62424080E-05  7.44288197E-05  1.01976459E-04  1.17604725E-04  1.41497004E-04  1.81147552E-04  1.71666780E-04  1.87214076E-04  1.38483970E-04  1.13208001E-04  9.81692713E-05  1.09956193E-04  1.82879590E-04  2.79108983E-04  4.59086894E-04  4.91867762E-04
    4.42361945E-04  3.62346819E-04  2.72416338E-04  1.51015373E-04  1.74926575E-04  2.50097706E-04  3.07757444E-04  2.78299758E-04  2.63721455E-04  2.82337427E-04  2.83347430E-04  3.24865571E-04  3.07264976E-04  2.43144568E-04  2.36374572E-04  1.76821416E-04  2.14092137E-04  1.62176883E-04  1.27393560E-04  1.00619844E-04
    6.03433240E-05  5.45301983E-05  8.17096213E-05  6.88295590E-05  7.03357650E-05  9.19749065E-05  1.84147241E-04  2.83004664E-04  4.76704848E-04  7.03811618E-04  9.21773222E-04  8.67815467E-04  8.06670483E-04  6.35861623E-04  6.55886260E-04  6.30830249E-04  6.71563661E-04  5.53065589E-04  3.38615258E-04  2.10589996E-04
    1.57030437E-04  2.05099314E-04  2.38622129E-04  2.98802250E-04  2.31906271E-04  3.84484395E-04  2.48013493E-04  2.09163707E-04  1.85603934E-04  2.13338197E-04  2.56269454E-04  2.78153851E-04  3.24452406E-04  2.74773093E-04  2.46425721E-04  1.64306856E-04  1.20620419E-04  1.06711692E-04  9.60387738E-05  9.56011396E-05
    9.15230040E-05  5.27899594E-05  4.57086246E-05  4.61252990E-05  9.46798097E-05  1.05158145E-04  1.32578575E-04  1.09715298E-04  9.77495565E-05  7.27252138E-05  6.49376266E-05  6.10746515E-05  6.53954076E-05  1.11950644E-04  1.09324633E-04  1.13701086E-04  7.24084655E-05  7.61689015E-05  6.89692084E-05  8.59661553E-05
    7.89972676E-05  7.32371139E-05  7.53002812E-05  8.09821603E-05  6.05532408E-05  7.36569065E-05  8.90452863E-05  1.09758476E-04  1.21980301E-04  1.42951234E-04  1.69326014E-04  1.49683226E-04  1.36315682E-04  1.38240189E-04  9.56421427E-05  9.86706715E-05  1.65277403E-04  2.32048435E-04  3.98653826E-04  3.81415639E-04
    4.40890508E-04  4.31767989E-04  3.43257435E-04  1.84464842E-04  1.65723411E-04  2.63294539E-04  2.53822410E-04  2.79847434E-04  2.42049444E-04  2.79337828E-04  3.31841896E-04  2.80708617E-04  3.53582441E-04  3.62425050E-04  2.42678494E-04  1.55925072E-04  1.33293908E-04  1.31039453E-04  9.48240596E-05  9.39745274E-05
    5.90207320E-05  4.92348852E-05  7.06816314E-05  6.58345800E-05  5.41140722E-05  9.28166178E-05  1.60814208E-04  2.73590559E-04  4.18954401E-04  7.96648353E-04       0.00106349       0.00146909  9.53000435E-04  7.09458895E-04  5.53394531E-04  5.91066244E-04  6.30228096E-04  6.44629332E-04  3.94344593E-04  2.63754955E-04
    1.64048876E-04  2.14733679E-04  2.27985904E-04  2.87764535E-04  2.95670385E-04  3.59607726E-04  3.74697254E-04  2.23125358E-04  1.96097562E-04  2.20447776E-04  2.50891217E-04  2.88011662E-04  3.19020400E-04  3.15085766E-04  3.38200254E-04  2.09923552E-04  1.49302516E-04  1.18379490E-04  9.27062000E-05  1.14344388E-04
    9.33827051E-05  7.93059369E-05  5.44716138E-05  6.08929856E-05  7.54039938E-05  9.53171224E-05  1.23535416E-04  1.40634792E-04  1.15668720E-04  7.58145461E-05  4.70308961E-05  5.03398651E-05  5.91766327E-05  1.05388785E-04  9.64947667E-05  9.52466429E-05  8.58633906E-05  6.29005485E-05  7.06279214E-05  6.92303786E-05
    6.56481031E-05  7.91418477E-05  8.15713182E-05  6.45927529E-05  7.97830486E-05  7.38679280E-05  9.18456031E-05  1.04910410E-04  1.11410008E-04  1.43806942E-04  1.44235650E-04  1.39667558E-04  8.12313514E-05  1.00629271E-04  1.01972182E-04  9.21969592E-05  1.28959627E-04  2.15789736E-04  2.97786740E-04  3.82573581E-04
    3.51459524E-04  4.65702913E-04  3.79999553E-04  2.36213626E-04  1.69589686E-04  2.40766070E-04  2.62953031E-04  2.44283502E-04  1.99711339E-04  2.32390482E-04  3.09610689E-04  2.77016841E-04  2.96620810E-04  3.36630507E-04  3.08478685E-04  1.45002436E-04  1.31668343E-04  9.59635849E-05  8.26476009E-05  6.82441570E-05
    6.40960659E-05  5.41745036E-05  7.64892499E-05  6.51238978E-05  5.54183280E-05  7.84368874E-05  1.33738341E-04  2.31508920E-04  3.87874672E-04  5.64946477E-04  9.93918326E-04       0.00136159       0.00121305  6.97713022E-04  6.74568518E-04  5.28498266E-04  5.60022355E-04  6.31610852E-04  4.27372826E-04  3.17707933E-04
    2.33203664E-04  2.30749081E-04  2.30170262E-04  2.55574225E-04  2.79923480E-04  4.35458530E-04  3.93442229E-04  3.21034667E-04  1.98429788E-04  2.12471342E-04  3.01091082E-04  2.75499643E-04  2.78399105E-04  3.17937504E-04  2.74195886E-04  2.54405572E-04  1.52733528E-04  1.49255447E-04  1.15015766E-04  1.21913492E-04
    9.88580674E-05  6.05096159E-05  6.75866779E-05  6.47621490E-05  8.27716937E-05  7.80310311E-05  1.08543589E-04  1.40213351E-04  1.54468822E-04  1.06704753E-04  6.81270457E-05  5.18343969E-05  6.28024008E-05  8.00857696E-05  7.99284938E-05  8.35749119E-05  9.24983469E-05  6.69854677E-05  5.99547727E-05  6.88148766E-05
    7.02195684E-05  8.06644705E-05  9.19886202E-05  7.05212261E-05  6.72910523E-05  9.05466457E-05  8.11826136E-05  1.08853104E-04  1.22842794E-04  1.48944041E-04  1.44592221E-04  1.17491705E-04  7.84516986E-05  7.52448558E-05  8.96845683E-05  1.03618375E-04  1.27913294E-04  1.69853158E-04  3.55387316E-04  4.21716628E-04
    5.00770302E-04  4.29002242E-04  4.32361858E-04  2.87991390E-04  2.33266952E-04  2.42712746E-04  2.69684667E-04  2.39613245E-04  2.48772793E-04  2.25414393E-04  2.93486752E-04  2.54358135E-04  3.18536573E-04  2.99102545E-04  2.68445727E-04  1.99647659E-04  1.32585213E-04  1.27804903E-04  7.82691676E-05  6.49456807E-05
    5.93477999E-05  6.20724486E-05  7.22193028E-05  6.80662052E-05  5.05387835E-05  7.01472722E-05  9.66212006E-05  1.60150454E-04  3.45196016E-04  5.91108699E-04       0.00103860       0.00154291       0.00128136  8.28086315E-04  6.95365694E-04  5.03900883E-04  4.87150356E-04  4.72376885E-04  4.17022157E-04  3.31119171E-04
    2.90382772E-04  2.82409560E-04  2.74206737E-04  2.70731068E-04  2.78972245E-04  3.34596896E-04  3.62277386E-04  2.27223739E-04  1.91977554E-04  2.09222588E-04  2.87548496E-04  3.48552823E-04  3.23551723E-04  3.41149890E-04  2.84726977E-04  2.15297348E-04  1.61985652E-04  1.47831429E-04  1.39650501E-04  1.55712886E-04
    9.96787656E-05  7.08444402E-05  5.92420081E-05  6.05440355E-05  6.91195123E-05  6.19580334E-05  8.02431840E-05  9.78801463E-05  1.24510459E-04  1.10782605E-04  8.31325185E-05  8.03439536E-05  7.60653128E-05  1.00591060E-04  7.66202848E-05  6.83103588E-05  7.38484228E-05  6.19130400E-05  6.76090511E-05  7.13510715E-05
    8.19464129E-05  8.69661209E-05  8.16211033E-05  7.84451198E-05  8.08008738E-05  8.62230925E-05  9.26337880E-05  1.09158114E-04  1.31232284E-04  1.87722273E-04  1.77073595E-04  1.25068979E-04  8.26594506E-05  6.29334533E-05  6.97449134E-05  8.63039930E-05  1.48442414E-04  1.64750097E-04  2.65614386E-04  4.20158744E-04
    5.75812714E-04  5.96033111E-04  4.91901918E-04  3.79595275E-04  2.79460849E-04  2.64905760E-04  2.15357390E-04  2.26291959E-04  2.84665597E-04  3.05330892E-04  3.09024669E-04  2.79336345E-04  3.45078468E-04  3.58341529E-04  2.41473692E-04  1.68725058E-04  1.50164842E-04  1.41918404E-04  8.89481669E-05  5.86407444E-05
    6.94679439E-05  5.32520570E-05  6.87203108E-05  6.90472842E-05  5.33617923E-05  5.17969917E-05  7.99144022E-05  1.00867461E-04  2.21569489E-04  4.02082813E-04  8.99983912E-04       0.00122362       0.00166265  9.45404208E-04  7.86194451E-04  5.56320428E-04  4.73938292E-04  4.44098884E-04  3.19594558E-04  3.27918732E-04
    2.43929052E-04  3.00523186E-04  3.22792298E-04  3.22309759E-04  2.81042039E-04  3.55903658E-04  2.69178234E-04  2.24836689E-04  1.58120869E-04  2.08596328E-04  2.55294777E-04  3.54350236E-04  4.00027988E-04  4.40205366E-04  3.14030131E-04  2.62544958E-04  1.56735768E-04  1.45118584E-04  1.41821342E-04  1.19088283E-04
    1.03351969E-04  6.29540545E-05  5.72254411E-05  4.92309970E-05  6.98517390E-05  6.35472892E-05  7.08622612E-05  7.56798321E-05  7.31586019E-05  9.45569165E-05  9.69211670E-05  1.06809799E-04  9.00542890E-05  1.02797197E-04  8.78939488E-05  7.32711842E-05  6.83387969E-05  6.17240604E-05  5.99370973E-05  8.57192615E-05
    8.16491323E-05  9.78426690E-05  7.88490879E-05  6.74792462E-05  7.08360867E-05  9.23499729E-05  9.60660782E-05  1.19688398E-04  1.21666401E-04  1.42682720E-04  1.51735130E-04  1.12903278E-04  8.11971667E-05  6.45998789E-05  6.81450218E-05  7.26134888E-05  1.17655143E-04  1.62389394E-04  2.62562271E-04  3.19304148E-04
    4.85603564E-04  5.86560972E-04  4.62863676E-04  3.88601144E-04  3.11386222E-04  2.69657655E-04  2.39805785E-04  1.82310003E-04  2.47137589E-04  2.80634044E-04  3.04076047E-04  2.70774837E-04  3.00161093E-04  3.42595236E-04  2.70553173E-04  1.49675892E-04  1.30024364E-04  1.53788042E-04  8.67823154E-05  5.70461418E-05
    7.04180556E-05  5.83280770E-05  5.27909755E-05  6.14295144E-05  5.34801032E-05  5.07789383E-05  6.43350529E-05  1.04520963E-04  1.75980440E-04  3.31939761E-04  7.42750921E-04       0.00130818       0.00142839       0.00122238  8.51976271E-04  7.27611790E-04  4.76704757E-04  4.74074525E-04  3.28773481E-04  2.73278598E-04
    2.47682913E-04  2.84388247E-04  3.54498978E-04  3.22313095E-04  2.64448593E-04  2.49919311E-04  2.50815271E-04  1.65247903E-04  1.45188080E-04  1.45680991E-04  2.58326912E-04  3.28441460E-04  4.45541871E-04  5.15568702E-04  4.42651892E-04  3.01672930E-04  2.14668834E-04  1.65450559E-04  1.44974300E-04  1.40162832E-04
    9.99380197E-05  7.18884482E-05  5.50569194E-05  4.84939461E-05  5.90875618E-05  6.85361589E-05  7.54659290E-05  7.82954573E-05  5.15139144E-05  7.22279164E-05  7.90748164E-05  1.14523453E-04  1.03014477E-04  1.06738430E-04  9.61865070E-05  9.18598756E-05  7.55259330E-05  5.44772894E-05  7.10571325E-05  9.65623414E-05
    1.18563084E-04  8.94154387E-05  8.35524999E-05  7.63262516E-05  7.36604237E-05  9.61491310E-05  1.08854688E-04  1.36490838E-04  1.63521226E-04  1.49198906E-04  1.27995964E-04  9.22880190E-05  7.48020821E-05  5.55770809E-05  6.14299266E-05  7.53652580E-05  9.98366232E-05  1.76510350E-04  2.77118583E-04  3.76301498E-04
    4.50213003E-04  5.99258849E-04  5.12546008E-04  3.54175194E-04  2.57567937E-04  2.38143931E-04  2.38363454E-04  2.00731593E-04  2.38654990E-04  2.62174204E-04  3.29182963E-04  2.51419708E-04  3.28760094E-04  2.68352921E-04  2.36142246E-04  1.52774323E-04  1.20019700E-04  1.43036849E-04  1.08664131E-04  5.63946231E-05
    7.82545810E-05  6.30718742E-05  5.99840149E-05  5.04743690E-05  4.48479934E-05  4.28408596E-05  4.94263447E-05  8.15067665E-05  2.05214115E-04  3.10370503E-04  6.32801044E-04       0.00111180       0.00138603       0.00120648       0.00114868  7.96010839E-04  5.01623179E-04  4.44543266E-04  3.63223618E-04  2.38380548E-04
    1.97005214E-04  2.45069981E-04  3.21643737E-04  3.29921798E-04  2.43299012E-04  1.78091377E-04  1.81192869E-04  1.39562904E-04  9.82858617E-05  1.28964788E-04  2.01432657E-04  3.67544745E-04  4.32950235E-04  5.64439892E-04  4.06784312E-04  3.21595845E-04  2.37067985E-04  1.91605510E-04  1.56555037E-04  1.34952234E-04
    1.28048672E-04  8.87809652E-05  7.04997842E-05  5.55164265E-05  5.91549778E-05  7.08097946E-05  9.30588514E-05  7.25257623E-05  6.01667135E-05  7.06737522E-05  8.20013031E-05  9.97387881E-05  1.29865543E-04  1.24691574E-04  1.27844331E-04  1.11749058E-04  1.01070752E-04  6.57761983E-05  8.64149953E-05  1.23953207E-04
    1.24539099E-04  1.24641140E-04  7.97768739E-05  8.57751303E-05  7.83330877E-05  9.06240743E-05  1.06827187E-04  1.75668528E-04  1.99754831E-04  2.00380709E-04  1.38453510E-04  1.15936270E-04  7.65088496E-05  6.81516764E-05  5.85082865E-05  6.72605500E-05  9.95933985E-05  1.49284517E-04  2.87514310E-04  4.18994696E-04
    5.69527310E-04  6.33243934E-04  5.76390479E-04  4.28695350E-04  2.80151817E-04  1.91596227E-04  2.89027552E-04  2.18554657E-04  3.20455064E-04  2.75323644E-04  3.13291638E-04  2.80362428E-04  3.00423691E-04  2.63160622E-04  1.89174399E-04  1.46227762E-04  1.43169421E-04  1.34879540E-04  8.78528003E-05  6.57130468E-05
    8.26507114E-05  6.39252320E-05  5.31258687E-05  6.15409249E-05  4.93620718E-05  4.64392710E-05  5.12207403E-05  8.03305299E-05  1.76401374E-04  3.89823172E-04  6.48806350E-04       0.00106248       0.00144315       0.00129174       0.00107354  9.47413224E-04  5.39305112E-04  5.19700350E-04  3.95478850E-04  2.70870278E-04
    2.10021123E-04  2.37810861E-04  3.99770383E-04  3.74759805E-04  2.42822682E-04  1.63126238E-04  1.53663699E-04  1.19677103E-04  7.66253229E-05  9.57048110E-05  1.54725234E-04  2.95737990E-04  4.88105554E-04  5.81309963E-04  4.86452190E-04  3.88994839E-04  2.41307585E-04  1.68237995E-04  1.27474520E-04  1.14067555E-04
    1.21126530E-04  1.23841349E-04  1.11778304E-04  6.59642403E-05  7.96544271E-05  8.72172682E-05  9.64126089E-05  9.25721626E-05  5.93166439E-05  8.78439393E-05  9.39819657E-05  1.00347436E-04  1.31164233E-04  1.50263065E-04  1.69560946E-04  1.31985691E-04  1.07383181E-04  9.38551256E-05  1.01271471E-04  1.32278871E-04
    1.23010137E-04  1.20583488E-04  9.40222631E-05  1.05069167E-04  9.53078263E-05  1.09675553E-04  9.42923058E-05  1.48005544E-04  2.17949270E-04  2.27404465E-04  2.10921722E-04  1.30734647E-04  8.49913191E-05  6.42003590E-05  6.59888969E-05  6.71168212E-05  8.84954895E-05  1.51863090E-04  2.15683724E-04  3.73744353E-04
    5.48828575E-04  6.47497957E-04  6.64824999E-04  4.65172766E-04  3.32529379E-04  2.26094096E-04  2.49236942E-04  2.75726721E-04  3.09248971E-04  3.50129332E-04  3.62145665E-04  3.32692769E-04  3.61037930E-04  2.93346247E-04  2.29499452E-04  1.74493894E-04  1.42408316E-04  1.64765147E-04  8.89422115E-05  5.29408518E-05
    8.12132983E-05  5.72198910E-05  5.13231596E-05  5.56615415E-05  5.53668077E-05  4.64964188E-05  6.64161078E-05  9.54888033E-05  2.16240549E-04  3.55881929E-04  8.87628155E-04       0.00117303       0.00139675       0.00136724       0.00107436  8.89538812E-04  5.72609175E-04  4.41879949E-04  4.29341252E-04  3.03448452E-04
    2.08049504E-04  2.51166774E-04  3.50988361E-04  5.12825645E-04  2.94081865E-04  2.10151114E-04  1.71163946E-04  1.41582544E-04  7.80471238E-05  9.27537609E-05  1.18445770E-04  2.53701198E-04  3.22453903E-04  4.54090471E-04  4.67349714E-04  4.64419993E-04  3.34549723E-04  1.70444656E-04  1.27308042E-04  8.48164632E-05
    9.28957975E-05  8.90839957E-05  1.04309670E-04  8.51873623E-05  9.20176958E-05  1.03478348E-04  1.06816251E-04  8.96059549E-05  9.03344899E-05  1.01738532E-04  1.46246236E-04  1.21574766E-04  1.19499445E-04  1.63117224E-04  1.96300116E-04  1.61599530E-04  1.35174899E-04  1.04834115E-04  1.29858552E-04  1.54551559E-04
    1.33862783E-04  1.22081611E-04  8.84328431E-05  9.60688780E-05  8.12936308E-05  9.20131866E-05  1.06834006E-04  1.13943873E-04  1.69761220E-04  2.04557629E-04  1.85319890E-04  1.59489516E-04  1.02530919E-04  7.35952731E-05  6.29036902E-05  6.33450837E-05  7.72784057E-05  1.34240139E-04  2.27201699E-04  3.12862170E-04
    4.06532498E-04  5.97972596E-04  6.39815224E-04  5.31602954E-04  3.65650586E-04  2.67406526E-04  2.55946306E-04  1.87421421E-04  2.60456421E-04  2.91413802E-04  3.89961583E-04  3.47686962E-04  3.04924308E-04  2.75501232E-04  2.34401069E-04  1.92448309E-04  1.65947627E-04  1.51451118E-04  1.30337463E-04  5.79172427E-05
    8.34987986E-05  5.73763792E-05  5.27323638E-05  4.84994891E-05  5.56937579E-05  4.97631650E-05  7.89333090E-05  1.21464586E-04  2.43980320E-04  4.30684388E-04  7.21420460E-04       0.00143809       0.00145323       0.00142320       0.00107294  8.10814994E-04  4.56873673E-04  4.90775984E-04  3.91870765E-04  3.27498493E-04
    2.16520892E-04  2.27738347E-04  3.45487798E-04  3.63563695E-04  3.28557433E-04  2.44429236E-04  2.16120715E-04  1.71941767E-04  8.79892635E-05  8.77179339E-05  1.22072560E-04  1.98054203E-04  3.06805400E-04  3.39727882E-04  4.56818338E-04  4.74831183E-04  4.28391175E-04  2.67211124E-04  1.60796875E-04  1.10376919E-04
    8.86833905E-05  7.45604913E-05  7.97600487E-05  8.38058414E-05  9.42228158E-05  1.07335486E-04  9.51405319E-05  9.80713906E-05  7.94299587E-05  1.37744546E-04  1.52756849E-04  1.43349616E-04  1.50433543E-04  1.55193361E-04  2.13553872E-04  1.75178137E-04  1.77872866E-04  1.47848179E-04  1.60642998E-04  1.98546261E-04
    1.50575716E-04  1.29390965E-04  1.10547555E-04  9.12537715E-05  8.57431807E-05  8.38932333E-05  1.06119448E-04  1.04571400E-04  1.31117455E-04  1.55175193E-04  2.03160203E-04  1.79558079E-04  1.22066902E-04  8.41838395E-05  6.45375147E-05  8.05691335E-05  8.70199197E-05  1.31754018E-04  1.64358336E-04  2.50908700E-04
    2.91703308E-04  4.36385533E-04  5.43224179E-04  4.74189255E-04  3.86507397E-04  2.98533521E-04  2.72089470E-04  2.11995960E-04  1.83194082E-04  2.29797698E-04  3.14050197E-04  3.44871000E-04  3.47382799E-04  2.74251625E-04  2.01960198E-04  1.52636820E-04  1.43059296E-04  1.33619575E-04  1.32965204E-04  8.95066634E-05
    9.63523761E-05  5.98202593E-05  5.41919220E-05  5.41265562E-05  4.82445451E-05  5.23118671E-05  7.10659457E-05  1.10927750E-04  2.40048178E-04  3.98590323E-04  7.34111536E-04       0.00121001       0.00144817       0.00124037  8.66296740E-04  6.60353941E-04  4.39293738E-04  4.07074830E-04  4.31540075E-04  2.71926536E-04
    2.40293028E-04  2.61621931E-04  3.45303398E-04  3.55547425E-04  2.49616222E-04  2.51677867E-04  2.22610883E-04  1.77525014E-04  8.12048955E-05  8.60480360E-05  9.73216600E-05  1.58262138E-04  2.01787850E-04  3.54543339E-04  3.85895987E-04  5.17765521E-04  4.70900192E-04  3.52170711E-04  2.18561699E-04  1.62678596E-04
    9.78135966E-05  7.19669620E-05  6.04927490E-05  6.46566858E-05  7.70488806E-05  1.11902105E-04  9.32728642E-05  7.68817527E-05  9.42371880E-05  1.22322892E-04  1.90720434E-04  1.59144007E-04  1.90795229E-04  1.77479394E-04  1.83951125E-04  1.57957406E-04  1.91503967E-04  1.75440393E-04  2.27585929E-04  2.14210511E-04
    1.78454908E-04  1.61582957E-04  1.05885171E-04  7.64432185E-05  7.06080205E-05  8.42274872E-05  9.65005546E-05  1.22543215E-04  1.21614096E-04  1.36260725E-04  1.68560722E-04  2.06361411E-04  1.29153098E-04  1.12010165E-04  8.09477451E-05  7.78649758E-05  8.90170752E-05  1.55576228E-04  1.50913320E-04  1.94833837E-04
    2.49053198E-04  3.00735791E-04  3.99153258E-04  3.84488253E-04  3.94150172E-04  3.10659610E-04  3.07716888E-04  1.94104604E-04  1.71121745E-04  1.72451643E-04  2.36571753E-04  2.28823900E-04  2.41789387E-04  2.68596981E-04  1.89235661E-04  1.42131622E-04  1.18881043E-04  1.16092537E-04  1.23166459E-04  1.03628152E-04
    1.00521435E-04  6.42849619E-05  5.10419687E-05  4.95293294E-05  5.65034167E-05  5.17382713E-05  8.23763617E-05  1.16323978E-04  2.20470080E-04  4.01509333E-04  7.11026615E-04       0.00143106       0.00135419       0.00119216  8.87823154E-04  5.19215305E-04  3.79588952E-04  3.07271713E-04  3.22526624E-04  2.63677149E-04
    2.08785234E-04  2.16587283E-04  3.44103382E-04  3.25664736E-04  2.50265233E-04  2.53883589E-04  2.39920876E-04  2.20420513E-04  9.40717507E-05  8.20094732E-05  8.79814468E-05  1.08127879E-04  1.42848480E-04  2.35206529E-04  3.48123219E-04  4.21317754E-04  4.18441486E-04  3.41120887E-04  2.53420993E-04  1.77769215E-04
    1.08173391E-04  7.88386147E-05  6.75042417E-05  6.32355631E-05  6.83434459E-05  9.50496517E-05  9.64124168E-05  8.22464569E-05  9.26841715E-05  1.25190429E-04  1.66654710E-04  1.66096976E-04  1.96840208E-04  2.06011850E-04  2.02345508E-04  1.33110783E-04  1.39333995E-04  1.59074716E-04  1.84280127E-04  2.38003157E-04
    1.66023840E-04  1.70925832E-04  1.24176118E-04  7.18827557E-05  6.17214852E-05  6.17608870E-05  8.84192445E-05  1.02221320E-04  1.38352453E-04  1.32474511E-04  1.80875398E-04  1.84375512E-04  1.51045069E-04  1.31069964E-04  1.11138624E-04  1.03908712E-04  1.18457262E-04  1.53752837E-04  2.02027720E-04  1.47053390E-04
    1.98735946E-04  2.37583977E-04  2.92110860E-04  2.88953065E-04  3.25983593E-04  3.63387926E-04  3.53138215E-04  2.20648509E-04  1.63904700E-04  1.81025117E-04  1.81937509E-04  1.83246900E-04  1.71100959E-04  2.40852069E-04  2.06485727E-04  1.38192142E-04  1.05787978E-04  1.04974235E-04  1.40167855E-04  1.12074631E-04
    1.21511741E-04  8.38153233E-05  6.28310946E-05  4.93420819E-05  5.44610809E-05  5.07344433E-05  6.90155835E-05  1.08136035E-04  2.39788508E-04  3.55136372E-04  7.04537669E-04       0.00103670       0.00133332       0.00108519       0.00104157  5.60280844E-04  3.48347535E-04  2.70325709E-04  2.65191083E-04  2.01136394E-04
    1.78289287E-04  1.63963355E-04  2.74088378E-04  3.42676111E-04  2.33212687E-04  2.48320676E-04  2.05871911E-04  1.93639950E-04  9.56027464E-05  8.32372776E-05  8.02014166E-05  9.47197148E-05  9.92801342E-05  1.40234639E-04  2.27689671E-04  3.13922441E-04  3.24649761E-04  2.75242043E-04  2.42768190E-04  1.79875049E-04
    9.66644218E-05  8.23774264E-05  7.80931930E-05  6.99454582E-05  7.99031436E-05  8.82575568E-05  1.06858821E-04  1.16674156E-04  1.04046718E-04  1.13219020E-04  1.62500641E-04  1.67416910E-04  2.08549762E-04  2.26117315E-04  2.23400413E-04  1.55672266E-04  1.44425589E-04  1.31497147E-04  1.40950521E-04  2.06843469E-04
    2.03063184E-04  1.74003519E-04  1.41620949E-04  8.70044150E-05  6.63544933E-05  5.75456256E-05  7.78277133E-05  8.73953773E-05  1.08795174E-04  1.35527567E-04  1.67796480E-04  1.78081805E-04  1.76566232E-04  1.70413841E-04  1.41492991E-04  1.46570616E-04  1.55552902E-04  1.92478470E-04  2.02715533E-04  2.05501285E-04
    1.65660956E-04  1.92342006E-04  2.64538456E-04  2.16089081E-04  2.79897971E-04  3.29675555E-04  3.33169319E-04  2.25204018E-04  1.69812307E-04  1.97175495E-04  1.71915622E-04  1.40469901E-04  1.33175675E-04  1.56243005E-04  2.09887442E-04  1.46178645E-04  1.10250409E-04  9.08504499E-05  1.11745344E-04  9.64517363E-05
    1.54278637E-04  8.77436878E-05  6.71257471E-05  4.57793843E-05  4.90913154E-05  5.43830722E-05  7.40060191E-05  1.10642284E-04  2.10735242E-04  4.32203383E-04  5.88142235E-04  9.74095180E-04  9.82902284E-04       0.00106587  8.30073548E-04  6.38402277E-04  3.86748495E-04  2.47342100E-04  2.18698382E-04  1.63742153E-04
    1.29925714E-04  1.39293879E-04  1.92728522E-04  2.87905893E-04  2.57205269E-04  2.61442622E-04  2.00452027E-04  1.89008466E-04  1.28564086E-04  9.38832788E-05  9.54336772E-05  7.31353940E-05  9.28282993E-05  1.13052695E-04  1.44510627E-04  2.10057148E-04  2.72119223E-04  2.60403460E-04  2.27286248E-04  1.79473247E-04
    9.66422959E-05  8.17955186E-05  7.33615934E-05  7.86373181E-05  7.30954865E-05  1.08927648E-04  1.00144831E-04  1.22448897E-04  1.27406221E-04  1.42690390E-04  1.71209393E-04  1.95301156E-04  2.04561096E-04  2.50722579E-04  2.24217635E-04  2.36315125E-04  2.24993416E-04  2.04049655E-04  1.62314762E-04  2.00504675E-04
    2.13921245E-04  2.09545781E-04  1.70648590E-04  1.13280979E-04  1.16711058E-04  9.69753518E-05  9.05043391E-05  7.88435130E-05  1.02611753E-04  1.22739468E-04  1.65759447E-04  1.80202953E-04  1.51453738E-04  2.01470011E-04  1.72270875E-04  1.74149580E-04  1.78536626E-04  2.26499029E-04  2.50012404E-04  1.82447390E-04
    2.01817897E-04  1.78107839E-04  1.76534554E-04  2.25640664E-04  2.13239814E-04  3.18923665E-04  4.08899571E-04  3.04281186E-04  2.16567759E-04  2.01569832E-04  1.75297080E-04  1.30150678E-04  1.15899202E-04  1.34062414E-04  1.55954264E-04  1.44680511E-04  1.29647545E-04  1.07297132E-04  1.15761645E-04  9.54770044E-05
    1.65659751E-04  1.30925498E-04  7.80249261E-05  5.91279778E-05  4.63546795E-05  4.61379240E-05  5.33007469E-05  8.77236234E-05  1.54000104E-04  4.08105303E-04  7.21054912E-04  9.14059350E-04  8.67358791E-04  8.49342525E-04  9.07945223E-04  6.38868249E-04  4.51734494E-04  2.61029138E-04  2.19010004E-04  1.49150506E-04
    1.10109735E-04  9.84539286E-05  1.69435714E-04  2.42993173E-04  2.62260732E-04  2.46250572E-04  1.94191893E-04  1.94375418E-04  1.61086857E-04  1.45620161E-04  1.24132630E-04  1.07393343E-04  1.05315766E-04  1.28074744E-04  1.23392720E-04  1.26341144E-04  1.80901808E-04  2.26229614E-04  1.73098472E-04  1.59410381E-04
    6.94077479E-05  6.66373291E-05  5.90069844E-05  5.71743458E-05  7.09774443E-05  9.23874132E-05  1.19852866E-04  1.04770047E-04  1.09704244E-04  1.48749656E-04  1.92684048E-04  2.10183887E-04  2.79437276E-04  2.36236041E-04  2.84813468E-04  2.47372968E-04  2.80737159E-04  2.68015969E-04  2.58408366E-04  2.67656875E-04
    2.83429881E-04  2.86507407E-04  2.17750314E-04  1.32039472E-04  1.39046872E-04  1.49126343E-04  1.42525831E-04  1.04916811E-04  9.16810152E-05  1.19836626E-04  1.34556144E-04  2.16082589E-04  1.74675264E-04  2.25775312E-04  2.18317529E-04  2.03039877E-04  2.02353300E-04  2.87657774E-04  2.88590872E-04  1.91592072E-04
    1.84135818E-04  1.83040565E-04  1.89970392E-04  1.70613555E-04  2.45525203E-04  2.20634174E-04  3.60947987E-04  3.48576028E-04  2.75505737E-04  2.80908710E-04  2.09653729E-04  1.20652381E-04  1.23710952E-04  1.01292865E-04  1.34198870E-04  1.10628934E-04  1.38780077E-04  1.23450277E-04  1.09136317E-04  8.67917061E-05
    2.17421122E-04  1.38915878E-04  1.13516134E-04  6.83667668E-05  5.34456040E-05  5.72942196E-05  4.87110193E-05  7.83814040E-05  1.14486892E-04  2.15849491E-04  5.58093546E-04  8.86638058E-04  8.34902483E-04  7.04725131E-04  8.32508881E-04  6.46778195E-04  4.15907435E-04  2.59555177E-04  2.45056381E-04  1.40983079E-04
    9.52546599E-05  7.77855699E-05  1.10876904E-04  2.23548689E-04  2.27682228E-04  2.15180190E-04  1.83681518E-04  1.84686595E-04  1.65910209E-04  1.55539781E-04  1.82852627E-04  1.48201182E-04  1.72943718E-04  1.67252582E-04  1.51568137E-04  1.58675001E-04  1.70994028E-04  2.17762539E-04  1.85832065E-04  1.12203402E-04
    6.25847192E-05  4.50226142E-05  5.18698399E-05  4.27532588E-05  4.67569094E-05  6.38870890E-05  9.19735670E-05  9.04785265E-05  8.62931964E-05  9.00742613E-05  1.69251064E-04  1.91780027E-04  2.45858122E-04  2.69399528E-04  2.73065466E-04  3.29782530E-04  2.62928046E-04  2.64143980E-04  3.03630142E-04  3.65936516E-04
    3.94667380E-04  3.29753379E-04  2.56203442E-04  1.84329701E-04  1.74931728E-04  1.84883169E-04  2.11988707E-04  1.47493449E-04  9.44968712E-05  9.69554872E-05  1.21450100E-04  1.58520715E-04  1.96274039E-04  2.36317148E-04  2.68540225E-04  2.51728338E-04  3.04495567E-04  3.16863482E-04  3.87087871E-04  2.35150276E-04
    2.16118579E-04  1.79097691E-04  1.97077720E-04  1.77988471E-04  1.60509002E-04  2.37397561E-04  2.94329481E-04  2.93663269E-04  2.83567744E-04  2.58581364E-04  1.88427901E-04  1.36141718E-04  1.33308830E-04  1.18791680E-04  1.02875442E-04  9.36508183E-05  1.01351070E-04  1.18985987E-04  1.22044565E-04  8.53404359E-05
    1.77073099E-04  1.69395815E-04  1.09343368E-04  1.03816129E-04  7.72017422E-05  5.74075286E-05  5.59172600E-05  6.54149521E-05  9.98654124E-05  1.72641850E-04  3.21391636E-04  5.88109727E-04  7.30927064E-04  6.73195580E-04  7.53582486E-04  6.74645976E-04  5.03686988E-04  2.50785269E-04  2.07417834E-04  1.50451424E-04
    8.08865947E-05  6.85514509E-05  7.61703837E-05  1.56008501E-04  2.10640699E-04  2.36193306E-04  1.85056141E-04  1.83355121E-04  1.47757750E-04  1.54282052E-04  1.52874218E-04  1.67262840E-04  2.24843328E-04  2.32961950E-04  1.90451312E-04  1.73755494E-04  1.81934398E-04  2.01416143E-04  1.76503208E-04  1.19883968E-04
    5.09250998E-05  4.31036587E-05  3.73933599E-05  3.31121138E-05  4.36135989E-05  5.32005857E-05  8.50860536E-05  8.18080027E-05  6.84846343E-05  7.19437635E-05  1.03873337E-04  1.62259958E-04  1.87339805E-04  2.14892081E-04  2.72935042E-04  3.22328475E-04  3.12486107E-04  2.57999620E-04  2.62398022E-04  3.67895361E-04
    3.99052818E-04  2.88714561E-04  2.26916270E-04  1.92962221E-04  1.89601525E-04  1.83788053E-04  2.50640020E-04  2.27574272E-04  1.50212265E-04  1.13879475E-04  8.36324592E-05  1.28336349E-04  1.55813645E-04  2.71116639E-04  2.96492034E-04  3.10773679E-04  3.38414498E-04  4.14431457E-04  3.90309623E-04  2.97261635E-04
    2.30841754E-04  2.12017635E-04  1.89268654E-04  2.01759459E-04  1.52869996E-04  1.91291422E-04  2.32404162E-04  2.56943422E-04  2.30209072E-04  2.62478541E-04  1.71051945E-04  1.15356802E-04  1.22139925E-04  9.04517561E-05  9.48914976E-05  6.72276350E-05  7.11425020E-05  8.00763188E-05  8.19084344E-05  6.83992165E-05
    1.58953231E-04  1.31296287E-04  1.18500855E-04  1.09831134E-04  9.58372258E-05  8.07417649E-05  5.80924044E-05  7.86128952E-05  8.34516953E-05  1.51573122E-04  2.86596228E-04  3.90087567E-04  6.08839275E-04  7.85522354E-04  7.16133547E-04  7.26397903E-04  5.01005430E-04  3.58069952E-04  2.24244820E-04  1.68565059E-04
    7.46816550E-05  5.71401090E-05  5.82060795E-05  1.05647609E-04  1.26980198E-04  1.64211948E-04  1.73931547E-04  1.69501474E-04  1.57801582E-04  1.55652268E-04  1.62337407E-04  1.60298920E-04  2.41134094E-04  2.50109458E-04  2.12801393E-04  2.19783183E-04  1.85534008E-04  1.96652777E-04  1.43992242E-04  1.01685106E-04