# File generated by Flopy version 3.5.0 on 03/08/2024 at 15:39:53.
BEGIN griddata
  strt
    INTERNAL  FACTOR  1.0
        15.00000000      15.00000000      15.00000000      15.00000000      15.00000000      15.00000000      15.00000000      15.00000000      15.00000000      15.00000000      15.00000000      15.00000000      15.00000000      15.00000000      15.00000000      15.00000000      15.00000000      15.00000000      15.00000000      15.00000000
        15.00000000      15.00000000      15.00000000      15.00000000      15.00000000      15.00000000      15.00000000      15.00000000      15.00000000      15.00000000      15.00000000      15.00000000      15.00000000      15.00000000      15.00000000      15.00000000      15.00000000      15.00000000      15.00000000      15.00000000
        15.00000000      15.00000000      15.00000000      15.00000000      15.00000000      15.00000000      15.00000000      15.00000000      15.00000000      15.00000000      15.00000000      15.00000000      15.00000000      15.00000000      15.00000000      15.00000000      15.00000000      15.00000000      15.00000000      15.00000000
        15.00000000      15.00000000      15.00000000      15.00000000      15.00000000      15.00000000      15.00000000      15.00000000      15.00000000      15.00000000      15.00000000      15.00000000      15.00000000      15.00000000      15.00000000      15.00000000      15.00000000      15.00000000      15.00000000      15.00000000
        15.00000000      15.00000000      15.00000000      15.00000000      15.00000000      15.00000000      15.00000000      15.00000000      15.00000000      15.00000000      15.00000000      15.00000000      15.00000000      15.00000000      15.00000000      15.00000000      15.00000000      15.00000000      15.00000000      15.00000000
        15.37641687      15.34531379      15.31937314      15.29062243      15.25167548      15.21820768      15.19166231      15.17573658      15.17578366      15.18293334      15.19519556      15.20631807      15.19940623      15.18397341      15.16515716      15.15713420      15.15480965      15.15905035      15.15804141      15.15720352
        15.13985266      15.12522529      15.11302350      15.10894873      15.10828957      15.11024866      15.10648889      15.09756402      15.09017718      15.08575032      15.08436697      15.08464575      15.08565726      15.08922108      15.09016516      15.08633843      15.07909195      15.07356327      15.06853040      15.06579284
        15.06378696      15.06330791      15.06098242      15.05638532      15.05044305      15.04996492      15.05221259      15.05745891      15.06006001      15.06080160      15.05861590      15.05918791      15.05736003      15.05476278      15.05172054      15.05123829      15.05213628      15.05006236      15.04844889      15.04652550
        15.04914143      15.05163973      15.05128133      15.05072489      15.05255215      15.05151756      15.04940487      15.04792630      15.04612847      15.04479565      15.04347002      15.04172243      15.04026346      15.04236765      15.04452528      15.04303980      15.03981275      15.03860581      15.03794261      15.04041179
        15.04315792      15.04807206      15.05160120      15.05413731      15.05091226      15.04770200      15.04559205      15.04449019      15.04374320      15.04400371      15.04552417      15.04518539      15.04680514      15.04995503      15.05107026      15.04986832      15.04854983      15.04878887      15.05081901      15.05197138
        15.72311101      15.69811473      15.65750538      15.61289440      15.53715900      15.45478029      15.39031275      15.35851596      15.34883687      15.35282620      15.37162129      15.38991106      15.38912212      15.37053922      15.34695326      15.32075636      15.30553742      15.30370672      15.30234110      15.29888103
        15.28140220      15.25531953      15.23288524      15.21630004      15.20946368      15.20180675      15.19817332      15.18774241      15.17332955      15.16416292      15.16143649      15.15867660      15.15710898      15.15985078      15.15904631      15.15799429      15.15036636      15.14259249      15.13306869      15.12636994
        15.11997407      15.11658657      15.11476154      15.11046369      15.10336015      15.10035023      15.10236258      15.10905015      15.11523497      15.11947697      15.11994396      15.11785618      15.11392758      15.10670031      15.10248622      15.09997716      15.10121550      15.09759310      15.09478980      15.09283164
        15.09357641      15.09484395      15.09478752      15.09356256      15.09514815      15.09554733      15.09334754      15.09245777      15.09116310      15.08938712      15.08634901      15.08359205      15.08133919      15.08053326      15.08351226      15.08367553      15.07995499      15.07762156      15.07882438      15.08251844
        15.08633646      15.08957940      15.09400709      15.09807625      15.09696118      15.09176142      15.08961177      15.08792025      15.08881024      15.08774324      15.08793528      15.08853100      15.08984055      15.09158053      15.09503481      15.09899054      15.10099720      15.10385867      15.10532264      15.10567118
        16.06142382      16.04469460      15.99516766      15.94065464      15.84136802      15.70935572      15.60114017      15.54026338      15.52211966      15.51950440      15.53432037      15.54726064      15.55677770      15.54644413      15.52588168      15.48884680      15.45696397      15.43813415      15.43201934      15.42384915
        15.40861225      15.38001651      15.35208524      15.32411651      15.30225327      15.28493447      15.27319787      15.26132166      15.24713307      15.23626970      15.23288520      15.23171966      15.22954301      15.22884525      15.22418794      15.22084106      15.21333910      15.20442120      15.19468819      15.18385744
        15.17382735      15.16559825      15.16144452      15.15690761      15.15226271      15.14815657      15.14821089      15.15237250      15.15992566      15.16880228      15.17613914      15.17715682      15.17157440      15.16280686      15.15503249      15.14878705      15.14607461      15.14323967      15.13996525      15.13818519
        15.13748425      15.13532079      15.13301169      15.13263405      15.13281799      15.13429492      15.13391239      15.13366211      15.13313380      15.13167787      15.12897594      15.12520015      15.12344655      15.11986911      15.11963925      15.12010411      15.11871859      15.11565974      15.11636443      15.12003326
        15.12517227      15.12782864      15.13119792      15.13511489      15.13570327      15.13156797      15.12836883      15.12854883      15.13145720      15.13143273      15.13001553      15.13052687      15.13204082      15.13326076      15.13503127      15.14127925      15.14745784      15.15401105      15.15629634      15.15685468
        16.39098580      16.36155631      16.31213654      16.26089454      16.15546408      15.99069840      15.84671818      15.73978805      15.69476391      15.68534122      15.69281914      15.70173678      15.71624790      15.71467921      15.69503156      15.66077078      15.61730285      15.58202481      15.55816135      15.53980587
        15.51555589      15.49027741      15.46351544      15.43180771      15.39773122      15.36822287      15.34718827      15.33065402      15.31469318      15.30328823      15.29743980      15.29943355      15.30056379      15.29918053      15.29364874      15.28626865      15.27582122      15.26266577      15.25037651      15.23696170
        15.22656762      15.21705492      15.20899985      15.20326411      15.20081771      15.19901826      15.19700016      15.19700083      15.20039172      15.21138179      15.22290455      15.22931082      15.22514129      15.21840498      15.21077000      15.20164634      15.19350737      15.18823399      15.18425674      15.18230091
        15.17908139      15.17497106      15.17000196      15.16877781      15.16958413      15.17122982      15.17287502      15.17288748      15.17126261      15.16857623      15.16619784      15.16326251      15.16142686      15.15817237      15.15544586      15.15340501      15.15218126      15.15090862      15.14975090      15.15162882
        15.15568594      15.15994063      15.16236086      15.16579771      15.16719869      15.16602758      15.16465029      15.16448727      15.16683613      15.16847811      15.16803847      15.16846904      15.16903586      15.17108098      15.17364145      15.17847178      15.18650023      15.19395693      15.19895876      15.20119107
        16.71603601      16.67931162      16.62038217      16.57039830      16.48185348      16.31125444      16.13121386      15.99041627      15.89446761      15.85827171      15.85110152      15.85698946      15.86738813      15.87228729      15.85747408      15.83010258      15.78098066      15.73803718      15.69542332      15.65712686
        15.62066430      15.58889796      15.56309927      15.53139415      15.49186307      15.45461319      15.42838141      15.40593312      15.38402115      15.36621302      15.35983280      15.35951983      15.36263099      15.36311972      15.35979381      15.35277580      15.34096388      15.32378499      15.30669629      15.29099468
        15.27987050      15.26992707      15.26108297      15.25464774      15.25280534      15.25398469      15.25240729      15.25003467      15.24848751      15.25693035      15.26683445      15.27372945      15.27334472      15.26859915      15.26433319      15.25709796      15.24632687      15.23618850      15.23021611      15.22697582
        15.22228720      15.21526192      15.20978143      15.20698859      15.20660835      15.20870965      15.21058347      15.21157938      15.21014146      15.20530332      15.20133145      15.19850042      15.19641680      15.19314988      15.18973213      15.18653283      15.18309105      15.18298350      15.18234586      15.18278852
        15.18450521      15.18787138      15.19070675      15.19308029      15.19496599      15.19620729      15.19830694      15.19897594      15.19995993      15.20102784      15.20228360      15.20261270      15.20345659      15.20428424      15.20838602      15.21451716      15.22195019      15.22909070      15.23551666      15.23907778
        17.03156359      17.00618287      16.94762364      16.88195917      16.79695530      16.63981526      16.42895252      16.25354268      16.13147220      16.05722296      16.02188306      16.01557168      16.01401630      16.01844766      16.00861096      15.98266495      15.93417761      15.88538132      15.83891455      15.78073045
        15.72958221      15.68737044      15.65858063      15.62869087      15.58873668      15.54372758      15.51467847      15.48681500      15.45667438      15.43211512      15.41998015      15.41774127      15.41778865      15.41826293      15.41637768      15.41101816      15.40165629      15.38413205      15.36380632      15.34712944
        15.33536457      15.32661832      15.31835084      15.31157376      15.30746263      15.30865567      15.30889112      15.30605521      15.30533545      15.30861726      15.31417157      15.31819085      15.32120661      15.31906040      15.31658170      15.31047721      15.30063782      15.28714766      15.27875461      15.27271981
        15.26694847      15.25908305      15.25149713      15.24858261      15.24640795      15.24585393      15.24672874      15.24826899      15.24826248      15.24519719      15.24031604      15.23686043      15.23229099      15.22769809      15.22203287      15.21750576      15.21339644      15.21169170      15.21143927      15.21243685
        15.21344342      15.21538768      15.21837623      15.22078016      15.22280097      15.22479287      15.22913705      15.23171993      15.23312579      15.23330738      15.23431015      15.23552753      15.23627576      15.23705389      15.24056821      15.24834551      15.25639028      15.26177802      15.26753798      15.27276838
        17.34135744      17.31679056      17.27269964      17.21736159      17.12914915      16.97363917      16.74271509      16.50874679      16.35353422      16.26508073      16.20418986      16.17657282      16.16654679      16.15787398      16.14376496      16.11781185      16.07266638      16.02119186      15.97284947      15.91163973
        15.84492854      15.79108725      15.75897660      15.73127709      15.69413034      15.64921369      15.61237288      15.58147325      15.53967054      15.50353662      15.48008315      15.47254713      15.47006093      15.46892576      15.46792729      15.46549672      15.45612269      15.43905069      15.41777504      15.39810007
        15.38673065      15.37971161      15.37399201      15.36649985      15.36280098      15.36172165      15.36125317      15.36049209      15.36190867      15.36491750      15.36704714      15.36607965      15.36783790      15.36773318      15.36652912      15.35993442      15.35104010      15.33952631      15.32765287      15.31897701
        15.30982505      15.30302214      15.29449017      15.28982457      15.28574614      15.28258073      15.28014408      15.28009260      15.28065207      15.28041087      15.27875490      15.27529975      15.26915189      15.26233176      15.25466059      15.24733912      15.24189818      15.23840456      15.23635962      15.23689157
        15.23831691      15.24011225      15.24345298      15.24687562      15.25034420      15.25336177      15.25662073      15.25966580      15.26116850      15.26244576      15.26349566      15.26563785      15.26664746      15.26894121      15.27312408      15.28043602      15.28739992      15.29244129      15.29701326      15.30162906
        17.64056709      17.61456890      17.57382662      17.52631670      17.44557296      17.28323988      17.04108032      16.76581736      16.56276010      16.45155888      16.38635730      16.34203001      16.31557155      16.29587837      16.26821763      16.23873427      16.19464595      16.14107943      16.09175759      16.03288162
        15.96019019      15.89565800      15.85608602      15.83243378      15.80113571      15.76384703      15.72524411      15.69038098      15.63910918      15.58528008      15.54578341      15.52667906      15.51860291      15.51612033      15.51809037      15.51890714      15.51311970      15.49624425      15.47415440      15.44955388
        15.43263813      15.42337127      15.41890517      15.41466823      15.41235593      15.41069512      15.40882650      15.41001264      15.41393232      15.41753000      15.41931828      15.41563359      15.41254356      15.41260407      15.41141758      15.40606929      15.39799825      15.38833978      15.37675186      15.36593314
        15.35511021      15.34540790      15.33642788      15.32871559      15.32258929      15.31826988      15.31474530      15.31027448      15.30966236      15.31016637      15.31101774      15.30942790      15.30417198      15.29555314      15.28670636      15.27820692      15.27045861      15.26537866      15.26132514      15.25934142
        15.25933719      15.26169725      15.26520821      15.26949948      15.27436041      15.27897098      15.28091171      15.28254021      15.28371843      15.28600193      15.28833053      15.29066999      15.29245918      15.29578995      15.30101584      15.30744708      15.31368250      15.31893414      15.32497479      15.32850334
        17.94716348      17.91998320      17.87719190      17.80761847      17.72040146      17.54324622      17.27649560      16.98561203      16.75802729      16.62037377      16.53938478      16.49589312      16.45740696      16.42767746      16.39238331      16.35196425      16.30424028      16.24900244      16.19504784      16.13753312
        16.06274594      15.99120192      15.94298077      15.91575276      15.89360074      15.86563574      15.83269407      15.79778721      15.74194782      15.67561856      15.62122968      15.58645624      15.57069891      15.56394975      15.56572983      15.56807508      15.56798481      15.55799520      15.53867293      15.51186377
        15.48533588      15.46689413      15.45790072      15.45583117      15.45383673      15.45314139      15.45180453      15.45387608      15.45914114      15.46360533      15.46565330      15.46329888      15.45915538      15.45547109      15.45303745      15.44874470      15.44335362      15.43414136      15.42405855      15.41418803
        15.40302206      15.39193649      15.38066118      15.36865322      15.36073984      15.35473091      15.35147539      15.34486171      15.34051160      15.33976640      15.34134005      15.34201565      15.33854126      15.33126011      15.32110912      15.31206845      15.30213221      15.29380896      15.28694344      15.28244288
        15.28034045      15.28166478      15.28497985      15.28977071      15.29560896      15.30137435      15.30437078      15.30523830      15.30504973      15.30647897      15.30881070      15.31161553      15.31446543      15.31839797      15.32325763      15.32921895      15.33562804      15.34107406      15.34798783      15.35315909
        18.26331529      18.23376461      18.18118699      18.09875913      17.97872927      17.77996872      17.47299754      17.16448904      16.92337828      16.77561728      16.67893533      16.62835037      16.59047076      16.55266027      16.51216406      16.46642972      16.41205354      16.35180510      16.29378843      16.22988246
        16.15784108      16.08274499      16.02992403      15.99464841      15.97017587      15.94768203      15.92068554      15.88849859      15.83384769      15.76262937      15.69805603      15.65153775      15.62720921      15.61699776      15.61356281      15.61437529      15.61479986      15.61171037      15.59837228      15.57689729
        15.54613432      15.51966443      15.50198377      15.49564533      15.49345045      15.49423214      15.49377783      15.49542989      15.50022114      15.50439934      15.50651452      15.50637360      15.50488670      15.49901412      15.49326898      15.48794014      15.48349824      15.47687598      15.46850670      15.45961011
        15.45050496      15.44061585      15.42813689      15.41290187      15.40270668      15.39565731      15.39044840      15.38508439      15.37789910      15.37417780      15.37434382      15.37498957      15.37239454      15.36733145      15.35756947      15.34699922      15.33619266      15.32606672      15.31548687      15.30787284
        15.30398075      15.30261262      15.30486985      15.30935223      15.31594786      15.32223569      15.32650396      15.32818804      15.32779053      15.32773229      15.32846929      15.33063986      15.33418117      15.33912589      15.34411984      15.34978423      15.35556394      15.36133681      15.36735090      15.37272974
        18.56551349      18.53639859      18.47154472      18.38211882      18.24770325      18.02009235      17.68808104      17.34251085      17.07940700      16.92006902      16.81804763      16.75855454      16.71755573      16.67906750      16.63811093      16.58529621      16.52643742      16.45275630      16.38905885      16.31937454
        16.24203407      16.16703786      16.11356221      16.07787540      16.04789306      16.02351385      15.99835353      15.97068106      15.91967525      15.84940700      15.77938636      15.72219788      15.68665702      15.66896415      15.66107699      15.65779333      15.65615269      15.65377004      15.64584568      15.62962555
        15.60307588      15.57560565      15.55420091      15.54218710      15.53704446      15.53677769      15.53810675      15.53935694      15.54276773      15.54357498      15.54546632      15.54648966      15.54640990      15.54306503      15.53603932      15.52787389      15.52079601      15.51480365      15.50790711      15.50182707
        15.49553240      15.48927184      15.47824589      15.46217569      15.44895983      15.43963341      15.43325135      15.42682573      15.41991600      15.41324811      15.40992797      15.40837604      15.40646673      15.40287200      15.39516744      15.38336484      15.37133993      15.35985934      15.34945045      15.33717077
        15.33046868      15.32656566      15.32660786      15.33000825      15.33593909      15.34255219      15.34726383      15.34987718      15.35100357      15.35085026      15.34971537      15.35061420      15.35355597      15.35911041      15.36496946      15.37053787      15.37577104      15.38107367      15.38610762      15.38963949
        18.85034048      18.82715673      18.75825732      18.64872531      18.50493256      18.25774524      17.89710805      17.53329393      17.24436525      17.06426674      16.95132351      16.88400070      16.84322927      16.80631539      16.77272667      16.72005528      16.65257989      16.56932362      16.48951982      16.41322214
        16.32846608      16.24457913      16.18857286      16.15593434      16.12595655      16.09780934      16.07050115      16.04527928      16.00406582      15.93964617      15.87060955      15.80616873      15.75684743      15.72420459      15.70958000      15.70140367      15.69730019      15.69359214      15.68753067      15.67393707
        15.65126190      15.62707755      15.60763385      15.59360966      15.58562242      15.58189950      15.58402441      15.58649961      15.58550992      15.58398611      15.58393357      15.58554107      15.58580337      15.58481914      15.58092973      15.57413531      15.56496683      15.55639705      15.54831313      15.54564734
        15.54298617      15.53819539      15.53199338      15.51955646      15.50584088      15.49203198      15.48158832      15.47046304      15.46168807      15.45394521      15.44741892      15.44276877      15.44070695      15.43696000      15.43014499      15.41979895      15.40737637      15.39451450      15.38418222      15.37152921
        15.35986115      15.35337869      15.35104726      15.35201299      15.35625626      15.36194297      15.36638403      15.37019633      15.37263690      15.37369409      15.37249574      15.37254158      15.37466657      15.37866930      15.38496924      15.39070806      15.39602329      15.40014671      15.40346668      15.40561737
        19.11098531      19.08717072      19.02639511      18.91179166      18.75217355      18.50636477      18.12238497      17.71690180      17.40474535      17.21515984      17.08623143      17.00948110      16.96214862      16.92751317      16.89476312      16.85593521      16.79057199      16.70158760      16.61002055      16.51881135
        16.42218168      16.32886818      16.26081543      16.22789270      16.19996403      16.17033030      16.14079122      16.11454602      16.08269300      16.02901241      15.96678762      15.90065099      15.84537788      15.79818147      15.76772731      15.75229545      15.74512253      15.73930635      15.73109402      15.71841927
        15.69622724      15.67229093      15.65323173      15.64024221      15.63168865      15.62808114      15.62732675      15.62858565      15.62716393      15.62487912      15.62381608      15.62469499      15.62454080      15.62468501      15.62361748      15.62322860      15.61789761      15.60920594      15.59918547      15.59408121
        15.59346393      15.59002439      15.58571258      15.57882474      15.57047860      15.55716647      15.53999298      15.52193100      15.50616219      15.49441331      15.48459876      15.47802483      15.47288968      15.46905862      15.46196003      15.45210473      15.44008911      15.42823967      15.41662853      15.40466175
        15.39216747      15.38182850      15.37605630      15.37551998      15.37686909      15.38069025      15.38501437      15.38932273      15.39269388      15.39414952      15.39427309      15.39451156      15.39643323      15.39915024      15.40386915      15.40961062      15.41518547      15.41879720      15.42053312      15.42177361
        19.33083415      19.31749871      19.26821575      19.17184121      19.00341194      18.74658904      18.35140984      17.91726103      17.56228111      17.35697783      17.22899637      17.14394193      17.08542492      17.04482016      17.01180579      16.97742448      16.92455941      16.83977664      16.74361654      16.64166641
        16.52758652      16.41815196      16.33833843      16.29529792      16.26770881      16.23795670      16.20884197      16.18151412      16.15451346      16.11193926      16.06072085      16.00098642      15.94340551      15.89217225      15.84653310      15.81536892      15.80075623      15.79188242      15.77900584      15.76429770
        15.74014422      15.71396593      15.69306169      15.67940508      15.67150747      15.66787041      15.66633308      15.66403032      15.66270073      15.66173767      15.66094295      15.66159784      15.66221215      15.66201114      15.66355116      15.66530784      15.66427548      15.66031830      15.65343988      15.64653493
        15.64376135      15.64110145      15.63662970      15.63104395      15.62642403      15.61828240      15.60224026      15.57955683      15.55503565      15.53634622      15.52165866      15.51318994      15.50482758      15.49868476      15.49151180      15.48116644      15.46943850      15.45842511      15.44771927      15.43417336
        15.42193854      15.41093493      15.40258298      15.39886729      15.39797681      15.39880776      15.40220594      15.40626686      15.40990903      15.41209253      15.41335128      15.41481300      15.41765471      15.41962958      15.42270477      15.42731936      15.43243547      15.43563782      15.43643547      15.43687380
        19.52036737      19.51677541      19.48860230      19.41771508      19.27459327      19.03348223      18.62940859      18.15062960      17.74049849      17.48034254      17.35592760      17.27426117      17.21309443      17.16101144      17.12640830      17.09009706      17.04151485      16.96702680      16.87689993      16.77086101
        16.64531248      16.51355905      16.41397201      16.36215176      16.32890271      16.29840197      16.26875470      16.23912938      16.21017669      16.17512627      16.13407503      16.08783020      16.03746242      15.98867209      15.94135890      15.89892935      15.86853117      15.85154120      15.83421687      15.81319947
        15.78587230      15.75467792      15.73289534      15.71663505      15.70789748      15.70301708      15.70217569      15.69889053      15.69510332      15.69231848      15.69293409      15.69384148      15.69541611      15.69651137      15.69896786      15.70088182      15.69983635      15.69801752      15.69611111      15.69238354
        15.68895601      15.68446087      15.67989697      15.67490322      15.66886586      15.66272280      15.65326151      15.63511365      15.60643540      15.57986778      15.55850759      15.54462597      15.53511064      15.52572705      15.51780220      15.50750754      15.49639533      15.48533045      15.47577030      15.46334499
        15.44982468      15.43827237      15.42931225      15.42193936      15.41759886      15.41651246      15.41751641      15.42046936      15.42406874      15.42687160      15.42908244      15.43236222      15.43596828      15.43847457      15.44045921      15.44359780      15.44660870      15.44902488      15.45003313      15.45045287
        19.67601551      19.67787071      19.66533592      19.62241141      19.51247052      19.30459767      18.94127464      18.44062429      17.99047027      17.65331421      17.47497052      17.39012573      17.33252887      17.27783419      17.23324944      17.19714798      17.14992308      17.07792235      16.99297631      16.89437796
        16.76199813      16.61690827      16.49162024      16.42393810      16.38655043      16.35481038      16.32311863      16.29061881      16.25756843      16.22155970      16.18487369      16.14678517      16.10787222      16.06737747      16.02430641      15.98171086      15.94258972      15.91463131      15.89377752      15.86901866
        15.83788274      15.80230356      15.77562146      15.75821699      15.74790858      15.74166130      15.73925773      15.73679456      15.73195453      15.72671695      15.72397492      15.72475141      15.72530056      15.72805527      15.73093330      15.73374697      15.73316596      15.73080572      15.72860478      15.72680435
        15.72411833      15.71917913      15.71505474      15.71131678      15.70506791      15.69785739      15.69127496      15.68015028      15.65732239      15.62627704      15.59622641      15.57471254      15.56075490      15.54950551      15.53999495      15.52978327      15.51917514      15.50866771      15.49933241      15.48886820
        15.47596853      15.46386359      15.45321419      15.44517971      15.43735314      15.43410434      15.43289932      15.43435326      15.43692129      15.43969114      15.44247056      15.44640208      15.45016020      15.45332897      15.45566567      15.45788218      15.45929436      15.46061941      15.46150628      15.46224031
        19.81202420      19.81751512      19.81161145      19.78373436      19.70293460      19.52790215      19.21128038      18.74963551      18.26342027      17.88084718      17.64288699      17.51459346      17.44512256      17.38954268      17.33613968      17.29473193      17.24897397      17.18357075      17.09626989      17.00384876
        16.87101664      16.71778344      16.57656662      16.48530404      16.43828634      16.40421681      16.37243307      16.33855193      16.30342996      16.26595329      16.22813009      16.19091289      16.15665608      16.12421975      16.08759373      16.04803307      16.00768628      15.97438571      15.94776514      15.92353887