# File generated by Flopy version 3.5.0 on 03/08/2024 at 15:39:53.
BEGIN options
END options

BEGIN griddata
  icelltype
    CONSTANT  0
  k
    INTERNAL  FACTOR  1.0
    3.44968881E-05  4.13039490E-05  4.92356992E-05  6.26065379E-05  6.28021232E-05  1.07685653E-04  1.12994209E-04  1.58545931E-04  1.43527822E-04  1.17557423E-04  1.01661323E-04  6.73256687E-05  5.90713956E-05  7.61540579E-05  6.87036817E-05  7.06745870E-05  9.65599110E-05  1.44375664E-04  1.55127395E-04  6.94872636E-05
    7.10188948E-05  8.84003999E-05  1.47847667E-04  1.33236056E-04  9.47489426E-05  5.91360525E-05  1.10416116E-04  8.11380051E-05  9.16410509E-05  5.49681132E-05  5.32450558E-05  6.71748954E-05  7.50683051E-05  6.41634909E-05  6.18877639E-05  7.28031189E-05  1.08107503E-04  7.32178340E-05  8.05109060E-05  1.13605262E-04
    1.76347299E-04  2.41671921E-04  3.06275248E-04  6.06011330E-04       0.00155506       0.00182029  6.93950229E-04  1.99793646E-04  9.38059223E-05  6.37178038E-05  4.13441149E-05  1.63512513E-05  8.94182673E-06  9.13565698E-06  1.29638598E-05  9.04827919E-06  9.52578342E-06  1.25267924E-05  2.39713685E-05  2.40398130E-05
    2.05529923E-05  3.09106379E-05  6.09677530E-05  1.14356356E-04  1.06984217E-04  1.02895969E-04  1.29474596E-04  9.10159210E-05  7.03434723E-05  5.43524524E-05  4.09530326E-05  5.69486460E-05  5.64622400E-05  7.28470071E-05  5.38961132E-05  5.51899521E-05  9.20680134E-05  1.29855487E-04  1.34685929E-04  1.28325232E-04
    7.25751778E-05  7.59912529E-05  6.17113999E-05  4.80127031E-05  9.96749028E-05  1.86903416E-04  4.21381883E-04  3.00139887E-04  2.86247517E-04  3.67612198E-04  6.87498621E-04       0.00138924       0.00186561       0.00109681       0.00180558       0.00117449       0.00131053  6.79980459E-04  8.42793751E-04  6.09982224E-04
    4.29750985E-05  3.65282614E-05  5.37740753E-05  3.91355948E-05  6.11917005E-05  6.96334807E-05  1.10333871E-04  1.06711386E-04  9.68681990E-05  1.02623921E-04  1.19331714E-04  8.27261885E-05  7.77508748E-05  6.56791695E-05  6.18708337E-05  6.84104652E-05  1.02936236E-04  1.90745876E-04  1.79876690E-04  1.43472749E-04
    7.89129998E-05  1.33501839E-04  1.61208641E-04  1.78239036E-04  8.88273190E-05  1.32715442E-04  9.91205491E-05  1.28455542E-04  9.00359280E-05  7.97234704E-05  5.11340515E-05  5.83374167E-05  8.01469014E-05  7.88539931E-05  9.29590206E-05  8.59302020E-05  6.73749692E-05  7.22790310E-05  6.64704845E-05  1.07779935E-04
    2.48808574E-04  2.26559253E-04  2.90130864E-04  3.12904222E-04  9.58708458E-04  9.62244798E-04  5.08304280E-04  2.15094276E-04  8.94829062E-05  4.56745407E-05  2.84488929E-05  1.32711118E-05  9.55006855E-06  1.19067366E-05  8.53086054E-06  1.01359992E-05  7.21977956E-06  1.36521442E-05  1.47087319E-05  2.09795548E-05
    2.46926329E-05  3.94869921E-05  7.07216838E-05  1.74319776E-04  1.17915763E-04  1.91584716E-04  1.31185471E-04  1.05623694E-04  5.88826938E-05  5.96302071E-05  4.80509687E-05  4.42424206E-05  4.58008823E-05  5.11837827E-05  3.87760832E-05  4.10907464E-05  5.77946874E-05  9.68025794E-05  1.24109359E-04  8.88746798E-05
    7.33086454E-05  8.90183420E-05  8.21187754E-05  6.17168078E-05  8.03353220E-05  2.17433306E-04  2.64329296E-04  3.18493160E-04  2.62358932E-04  3.30716806E-04  6.49894587E-04  8.71348208E-04       0.00132219       0.00183993       0.00138796       0.00142708  7.90095973E-04  8.21391805E-04  6.13086647E-04  6.13183201E-04
    5.06847008E-05  5.51381236E-05  4.88431565E-05  4.68888192E-05  3.81485244E-05  7.78112257E-05  1.12532783E-04  9.83928298E-05  8.60243562E-05  9.74929778E-05  1.06889817E-04  1.76899390E-04  9.67880297E-05  9.49777340E-05  5.04954774E-05  8.34607592E-05  1.24140145E-04  2.23765041E-04  2.83808067E-04  2.38727863E-04
    1.41479662E-04  2.03955521E-04  1.83940099E-04  2.06435229E-04  1.88049420E-04  1.80685501E-04  1.89439279E-04  1.39509335E-04  1.13323272E-04  1.21995498E-04  7.14944655E-05  7.17070613E-05  5.86062062E-05  9.30155198E-05  1.19454231E-04  8.96166467E-05  7.19704506E-05  8.23675509E-05  8.20942118E-05  1.60678540E-04
    2.15669333E-04  3.67724146E-04  2.66673463E-04  4.56054896E-04  3.96051249E-04  4.81198646E-04  3.24892846E-04  2.47984220E-04  1.33942313E-04  5.95431541E-05  1.87260781E-05  1.08645975E-05  9.90530014E-06  1.17369802E-05  8.92637183E-06  8.39184070E-06  1.09845279E-05  7.96105610E-06  1.09712568E-05  1.51914930E-05
    2.70423914E-05  7.29316646E-05  1.09146984E-04  1.22554802E-04  2.10730700E-04  1.84304852E-04  2.09963512E-04  1.04305499E-04  6.74709820E-05  6.35870546E-05  4.39931232E-05  5.48123703E-05  2.78236756E-05  3.15841312E-05  3.28828985E-05  2.94686677E-05  3.26193445E-05  7.86692833E-05  8.27713435E-05  1.04992709E-04
    6.22172166E-05  9.11776101E-05  8.63863721E-05  8.94003946E-05  1.04157524E-04  1.66568946E-04  1.98907981E-04  2.28403425E-04  1.90360625E-04  3.50694170E-04  5.91749672E-04  6.81957944E-04       0.00103914       0.00136656       0.00170387  8.42700521E-04       0.00100162  6.38910864E-04  6.15433852E-04  3.91003554E-04
    5.68014192E-05  6.17228614E-05  8.77653590E-05  3.99271626E-05  4.37222601E-05  5.37134349E-05  8.70879258E-05  7.63032129E-05  9.16468248E-05  7.20205538E-05  1.27725220E-04  1.55926095E-04  1.85346706E-04  7.71519925E-05  7.86229414E-05  7.67069122E-05  1.30581050E-04  2.48036019E-04  2.78053250E-04  3.51260224E-04
    3.14307103E-04  2.83211985E-04  2.10543324E-04  2.15080459E-04  2.46572312E-04  3.03452972E-04  1.89586689E-04  1.82057227E-04  9.34942370E-05  1.17658453E-04  1.18069003E-04  7.38530014E-05  6.98894040E-05  9.86620632E-05  9.20764055E-05  1.04087023E-04  6.39099168E-05  1.11485566E-04  1.59781892E-04  2.15268190E-04
    2.86515734E-04  2.05852507E-04  4.09077579E-04  4.05342087E-04  3.38316270E-04  2.35468866E-04  1.94562424E-04  1.92547536E-04  1.97360704E-04  7.33327989E-05  2.69016987E-05  1.19154514E-05  1.32327460E-05  1.04056016E-05  8.10825878E-06  8.63847513E-06  1.17311099E-05  8.27310532E-06  7.14806870E-06  8.87377157E-06
    2.82394713E-05  9.19491392E-05  1.38808467E-04  1.38117603E-04  1.72203351E-04  2.46730399E-04  1.90112093E-04  1.51254759E-04  1.17061716E-04  8.05234654E-05  7.61408631E-05  3.79946158E-05  2.57559346E-05  1.72554484E-05  2.35255137E-05  2.43875505E-05  2.79224954E-05  3.51930826E-05  6.73201023E-05  7.75774211E-05
    1.15346357E-04  7.01631582E-05  9.98522817E-05  1.11055071E-04  1.40064409E-04  1.58224020E-04  1.79780886E-04  1.43479483E-04  2.28353635E-04  3.06356504E-04  6.09352767E-04  7.28406054E-04       0.00105859       0.00151129  9.31549802E-04  8.53840352E-04  6.56919212E-04  7.79089327E-04  7.11584229E-04  3.23374155E-04
    3.14681008E-05  6.06039373E-05  7.22604654E-05  5.64550268E-05  4.77660292E-05  4.06879325E-05  4.83278475E-05  4.13547838E-05  6.21108200E-05  7.41564365E-05  1.01749541E-04  1.87333610E-04  1.38252460E-04  9.47751838E-05  7.42469477E-05  6.48538423E-05  1.32085266E-04  1.49352374E-04  1.97834246E-04  2.36854327E-04
    3.69497121E-04  3.22629337E-04  2.38099577E-04  2.07584030E-04  2.60045988E-04  2.44136027E-04  2.06110851E-04  1.16367899E-04  8.97802763E-05  9.75507171E-05  8.38772396E-05  7.58257131E-05  7.06402656E-05  8.59175628E-05  7.50041161E-05  6.43288493E-05  5.20775663E-05  9.02532231E-05  1.86619930E-04  3.85107168E-04
    1.90148211E-04  2.23408616E-04  1.84590971E-04  3.69752731E-04  2.64213449E-04  1.90287540E-04  1.33020416E-04  1.33663845E-04  1.16519114E-04  6.98280033E-05  2.85984364E-05  2.62010660E-05  1.44941679E-05  1.07424865E-05  6.79470009E-06  5.96259285E-06  9.72744378E-06  8.77150912E-06  6.19053807E-06  7.91761632E-06
    2.38682424E-05  7.52186822E-05  1.23095368E-04  1.11435693E-04  1.84899417E-04  1.52504611E-04  1.86729534E-04  1.44266270E-04  1.13960519E-04  1.30561407E-04  7.36711422E-05  3.25031741E-05  1.82003761E-05  1.15714185E-05  1.30937214E-05  1.83059783E-05  2.76391053E-05  2.87894512E-05  3.42326870E-05  7.64943719E-05
    1.04701429E-04  1.01412386E-04  9.16545862E-05  1.12888453E-04  1.20849820E-04  1.43928841E-04  9.12251340E-05  1.17344157E-04  2.00157166E-04  3.82805394E-04  4.81750222E-04  7.48430904E-04       0.00130438       0.00147732       0.00102783  5.85353949E-04  5.64154412E-04  8.00308701E-04  6.99085633E-04  3.44144287E-04
    3.39339972E-05  4.04611961E-05  5.49318510E-05  6.06770263E-05  5.64676914E-05  3.62694350E-05  3.36951934E-05  2.37393024E-05  3.05024836E-05  4.91724421E-05  1.19931508E-04  1.28043103E-04  1.79144947E-04  8.83566680E-05  6.52609517E-05  6.49055993E-05  8.87619802E-05  1.42732249E-04  1.18560852E-04  1.75517657E-04
    2.06837823E-04  2.56232695E-04  2.74921227E-04  2.55853629E-04  1.86723725E-04  2.30333232E-04  8.56159138E-05  7.96576031E-05  5.41401409E-05  7.22580531E-05  5.59979470E-05  6.71756440E-05  6.59003816E-05  9.43148508E-05  5.32303246E-05  6.23807075E-05  3.65757999E-05  7.16528779E-05  1.74813017E-04  2.54978532E-04
    2.43802621E-04  1.59059810E-04  1.22660877E-04  1.81727660E-04  1.68319494E-04  1.51889283E-04  1.06350058E-04  1.09502568E-04  5.85802891E-05  4.18282838E-05  3.39901042E-05  3.95804867E-05  2.26651097E-05  1.57605624E-05  7.83879712E-06  7.04177985E-06  6.23185648E-06  7.15033333E-06  5.45912110E-06  1.35443934E-05
    2.14059897E-05  5.28246801E-05  6.06303951E-05  9.03513313E-05  9.83434467E-05  1.61493505E-04  1.43105384E-04  1.35710289E-04  1.24353307E-04  9.57784538E-05  6.83889530E-05  2.72100075E-05  1.57206755E-05  9.24895709E-06  7.37756731E-06  1.15380314E-05  2.07428790E-05  2.30184568E-05  3.74856673E-05  3.64240634E-05
    9.29412141E-05  1.08049235E-04  1.00847994E-04  8.91593250E-05  1.02484807E-04  8.05516961E-05  6.68918771E-05  6.74153035E-05  2.02180615E-04  3.42912924E-04  4.64663066E-04  7.73914405E-04  8.83875153E-04       0.00148261  9.14396286E-04  4.90891465E-04  5.11436291E-04  7.37277965E-04  6.01498390E-04  3.39751065E-04
    4.74653906E-05  4.81325636E-05  3.91640612E-05  4.90840566E-05  4.85306615E-05  3.37371714E-05  2.78687448E-05  2.41955556E-05  2.10701467E-05  4.56610227E-05  7.56238085E-05  1.55328001E-04  1.65801576E-04  1.22546486E-04  8.12732113E-05  6.25843081E-05  7.00272929E-05  9.15599799E-05  1.25818964E-04  1.23184188E-04
    1.39281252E-04  1.85153446E-04  3.15282130E-04  2.95716672E-04  2.62906476E-04  1.40950439E-04  8.83727295E-05  4.13602247E-05  4.78627174E-05  3.46344922E-05  5.38711020E-05  6.15524114E-05  9.11124539E-05  8.78829962E-05  6.86642833E-05  3.89958583E-05  4.63831503E-05  7.27980317E-05  1.18247895E-04  2.45875040E-04
    2.04969831E-04  2.16400990E-04  1.26923012E-04  1.38460833E-04  1.41626105E-04  1.23462833E-04  1.10532141E-04  9.39261175E-05  3.68595752E-05  4.34493006E-05  3.36008012E-05  5.29776492E-05  3.46844772E-05  2.14771780E-05  1.67495916E-05  1.46864982E-05  9.74180267E-06  6.05018729E-06  8.27624204E-06  2.30207917E-05
    4.64139788E-05  4.10762683E-05  6.66358825E-05  5.84853381E-05  9.32609007E-05  1.11165796E-04  1.34366520E-04  1.52477688E-04  1.45940092E-04  7.31887371E-05  4.38484332E-05  2.20154670E-05  1.83817567E-05  8.73734000E-06  8.91396172E-06  8.98034677E-06  1.48801082E-05  2.51984813E-05  3.69267738E-05  4.15679653E-05
    7.21851226E-05  1.12925966E-04  1.12942692E-04  7.20569884E-05  6.93436245E-05  4.86670808E-05  5.72953185E-05  6.99984898E-05  1.53080476E-04  2.50320486E-04  5.36839760E-04  5.31735171E-04       0.00123092  9.17267028E-04  9.73439181E-04  5.38994902E-04  7.19695328E-04  7.80699219E-04  6.58310949E-04  3.39093634E-04
    6.19096149E-05  5.14000775E-05  4.89946316E-05  3.34037535E-05  3.60086732E-05  2.88997895E-05  2.05685130E-05  1.95086246E-05  3.27342910E-05  3.45031548E-05  6.94984877E-05  9.69051483E-05  1.39642868E-04  1.12746542E-04  1.07187169E-04  8.36805515E-05  5.28588034E-05  6.38354157E-05  1.07168387E-04  8.89357209E-05
    1.30787774E-04  1.72721884E-04  3.24884843E-04  4.18635387E-04  2.20247509E-04  1.13489851E-04  6.19818254E-05  4.39086520E-05  2.82683396E-05  2.30764149E-05  3.43920038E-05  6.96164665E-05  1.04311948E-04  1.45288733E-04  7.54236926E-05  4.39243862E-05  5.43191382E-05  7.12871731E-05  1.23991429E-04  1.70372761E-04
    2.54888890E-04  2.40279478E-04  1.87647962E-04  1.39436022E-04  1.13349445E-04  1.21726722E-04  1.17553924E-04  5.88253522E-05  4.20901303E-05  3.95092758E-05  5.70240767E-05  6.22777854E-05  5.47011921E-05  3.56862928E-05  3.24981743E-05  4.08827337E-05  1.91342527E-05  1.11019741E-05  1.40069403E-05  4.27397788E-05
    6.13528378E-05  7.60909891E-05  5.60990374E-05  1.10073488E-04  1.06910010E-04  1.10834393E-04  9.86018216E-05  1.76876047E-04  1.91546120E-04  9.27617043E-05  3.98942651E-05  2.79471207E-05  1.40098489E-05  1.43407234E-05  9.31877076E-06  9.60458737E-06  1.82996153E-05  2.02528384E-05  4.20250189E-05  4.13367645E-05
    8.63631082E-05  1.10736547E-04  1.34985173E-04  8.33571706E-05  5.15411725E-05  3.10573721E-05  7.65651577E-05  8.32910533E-05  1.80837674E-04  2.37136617E-04  3.83680705E-04  5.96050553E-04       0.00100969  9.84918652E-04  8.21681054E-04  7.64072242E-04       0.00123467       0.00103870  7.49639249E-04  5.90949314E-04
    4.97922770E-05  5.67263375E-05  3.54505538E-05  3.36718106E-05  2.49253058E-05  2.63262939E-05  1.54407912E-05  2.47014826E-05  2.60522842E-05  5.43651745E-05  5.21475776E-05  8.46782130E-05  7.15262537E-05  8.82913208E-05  8.00286364E-05  7.87987841E-05  4.27028249E-05  5.06486032E-05  4.85133949E-05  7.35740082E-05
    7.63116105E-05  1.50580664E-04  3.23847137E-04  4.84580759E-04  2.24550515E-04  7.22360447E-05  5.23380247E-05  3.45562136E-05  2.17167335E-05  1.86117740E-05  2.28104323E-05  5.06090467E-05  1.01898879E-04  1.14344275E-04  8.52619917E-05  5.81344703E-05  5.20545504E-05  7.24659136E-05  8.21971411E-05  1.68939383E-04
    1.86694900E-04  3.13038700E-04  2.85761407E-04  1.32468375E-04  1.14505320E-04  1.17581493E-04  7.48404090E-05  6.47060014E-05  2.67460442E-05  5.43809560E-05  6.13620265E-05  7.50563830E-05  5.54519215E-05  4.97813029E-05  6.13674852E-05  6.27479703E-05  2.96094941E-05  2.45938432E-05  2.51829340E-05  6.05808390E-05
    8.72298323E-05  8.72475142E-05  8.79562764E-05  1.56755441E-04  1.60401822E-04  1.34102741E-04  8.20980039E-05  1.40777566E-04  1.46255851E-04  1.01486204E-04  5.54415144E-05  3.14579425E-05  1.98721154E-05  1.36215239E-05  9.24907340E-06  1.05091713E-05  1.53610912E-05  2.94643686E-05  2.98098574E-05  5.48242158E-05
    5.97690520E-05  9.48097763E-05  1.34969750E-04  8.76458157E-05  4.56737787E-05  3.21691272E-05  4.47279725E-05  9.90879378E-05  1.43805022E-04  2.18534931E-04  3.39171458E-04  4.87694931E-04  9.07898828E-04  6.93844366E-04  8.97680846E-04       0.00116197       0.00142615       0.00161485       0.00106904  5.12670707E-04
    5.75893501E-05  4.31291572E-05  3.81665496E-05  3.17456902E-05  2.58489300E-05  2.55065342E-05  2.65198609E-05  2.90582851E-05  3.69733343E-05  3.98860464E-05  7.42680228E-05  6.77972588E-05  5.86351059E-05  7.34196210E-05  4.84128352E-05  5.04994365E-05  4.27637140E-05  3.55603413E-05  4.50003183E-05  4.93858608E-05
    5.49747831E-05  1.14773449E-04  1.98436234E-04  4.70099377E-04  1.58860546E-04  8.90431901E-05  3.81130723E-05  2.87497174E-05  1.64409517E-05  1.61299514E-05  1.73123020E-05  4.73993225E-05  7.03685412E-05  9.03615993E-05  8.28088724E-05  7.75001936E-05  6.62913255E-05  5.93694208E-05  8.91821751E-05  1.08879660E-04
    1.70298677E-04  2.16026914E-04  2.67859936E-04  1.62045488E-04  1.27359603E-04  8.24902780E-05  6.85603412E-05  3.49450206E-05  4.21998280E-05  4.15492379E-05  1.06758286E-04  7.37968138E-05  4.99904547E-05  6.69899508E-05  8.05185256E-05  7.33748762E-05  4.42189309E-05  2.92430798E-05  4.07944601E-05  5.83885313E-05
    7.59868223E-05  9.68122574E-05  1.07575584E-04  1.97819657E-04  1.54862168E-04  1.36694171E-04  1.24737933E-04  9.48798039E-05  1.00860767E-04  9.49421768E-05  5.41291056E-05  5.23339197E-05  2.56102627E-05  1.38285421E-05  8.99854010E-06  7.93120555E-06  1.45723463E-05  1.69179198E-05  3.38581637E-05  3.43179872E-05
    3.99112536E-05  5.46633303E-05  7.81804516E-05  6.49182399E-05  5.11729044E-05  3.05615776E-05  4.14409326E-05  5.08018306E-05  1.00730896E-04  1.08042483E-04  2.66913544E-04  4.37001209E-04  6.19407674E-04  4.80125400E-04  6.91517737E-04  8.04579710E-04       0.00135324       0.00135425       0.00138056  6.98842801E-04
    4.96893951E-05  3.47073793E-05  4.34129155E-05  3.53777240E-05  3.06881587E-05  3.17155920E-05  5.42647551E-05  5.77161544E-05  5.53071325E-05  6.80293478E-05  7.40971923E-05  1.05624847E-04  7.64882565E-05  6.25282721E-05  4.06715448E-05  3.54471172E-05  2.81505594E-05  3.67372014E-05  3.22823659E-05  4.73323536E-05
    4.42663596E-05  9.59861642E-05  1.81715669E-04  1.68573267E-04  1.79449217E-04  9.58255059E-05  6.38916789E-05  3.74528740E-05  1.78363585E-05  1.39552610E-05  1.68526157E-05  3.18355789E-05  6.68597845E-05  6.49597985E-05  9.85537863E-05  7.89670813E-05  6.49004880E-05  7.46637409E-05  8.42456188E-05  1.35659845E-04
    1.73504356E-04  1.36467718E-04  1.72368697E-04  1.90241625E-04  1.76843888E-04  1.15370284E-04  5.23445794E-05  4.56553996E-05  3.65797468E-05  7.77027177E-05  1.24386880E-04  9.01033798E-05  7.93987402E-05  6.65417667E-05  9.35913340E-05  7.16938744E-05  6.18115749E-05  4.47381523E-05  5.62923664E-05  6.07921414E-05
    7.00516417E-05  8.97356443E-05  1.87306457E-04  1.53620301E-04  1.48356408E-04  1.15818055E-04  1.51999162E-04  9.92646683E-05  8.55082516E-05  6.53719596E-05  7.51249283E-05  5.79855752E-05  3.80109612E-05  1.62965829E-05  1.07849949E-05  1.21884511E-05  1.13471352E-05  2.03345522E-05  2.06699771E-05  2.85227947E-05
    3.10305323E-05  3.63352767E-05  4.26247238E-05  4.12844726E-05  3.53938571E-05  3.47634399E-05  2.90555369E-05  4.35828624E-05  4.06456751E-05  5.97513519E-05  1.50471016E-04  2.74595592E-04  4.97189415E-04  4.82037344E-04  4.68103029E-04  5.20549760E-04  8.20312678E-04  9.19662610E-04       0.00162760       0.00105788
    4.49156508E-05  2.65296547E-05  3.51307127E-05  4.15060791E-05  3.11218189E-05  4.68703297E-05  7.22515111E-05  7.19555587E-05  8.83649872E-05  7.54235029E-05  1.08276061E-04  1.44771947E-04  1.03788379E-04  5.99304748E-05  3.55475356E-05  2.76935619E-05  2.58519349E-05  2.90838089E-05  3.35911845E-05  3.00111144E-05
    3.55004197E-05  9.93548826E-05  9.33924746E-05  1.14466566E-04  6.69628285E-05  1.00425332E-04  7.33693628E-05  6.08367191E-05  1.86035668E-05  1.55899727E-05  1.23800738E-05  2.30941383E-05  3.04787498E-05  9.85781565E-05  8.74722025E-05  1.12523094E-04  6.02487643E-05  7.36632135E-05  8.21636734E-05  1.81365842E-04
    1.81544009E-04  1.33596862E-04  9.81260872E-05  1.44647112E-04  1.56246408E-04  1.32405105E-04  7.90015558E-05  4.29390475E-05  7.25780070E-05  9.77137140E-05  1.33042515E-04  1.34931474E-04  1.32824174E-04  1.44929510E-04  1.06166223E-04  7.11671910E-05  6.99615870E-05  5.95533455E-05  9.13976152E-05  6.79133579E-05
    5.70170677E-05  1.20293338E-04  1.58848644E-04  1.67575722E-04  1.20267512E-04  1.24876949E-04  1.34940012E-04  1.31377701E-04  6.71324694E-05  7.85003095E-05  8.89504572E-05  1.10571634E-04  4.08900423E-05  2.21111392E-05  1.93109241E-05  1.72222161E-05  2.12127442E-05  2.51199469E-05  1.82181193E-05  2.01488643E-05
    2.57565601E-05  3.35930296E-05  3.58083359E-05  3.47394405E-05  2.92191567E-05  2.71169565E-05  3.38664572E-05  2.93889992E-05  3.45547948E-05  4.85651188E-05  8.55071499E-05  1.57515802E-04  2.77682802E-04  4.97876232E-04  3.93745988E-04  4.03129529E-04  3.97976238E-04  6.64411764E-04       0.00118405       0.00203272
    3.45642345E-05  2.65494434E-05  2.28722983E-05  2.42133593E-05  3.53155953E-05  4.28536870E-05  7.04480351E-05  8.13787947E-05  7.02138698E-05  8.66862403E-05  1.03847830E-04  1.91846801E-04  1.07101697E-04  5.60334592E-05  2.98023881E-05  1.97417396E-05  1.90177155E-05  2.93068012E-05  2.16184428E-05  2.30684813E-05
    2.41689147E-05  4.04207610E-05  7.14401599E-05  5.41186125E-05  4.54366143E-05  5.72920157E-05  6.09372079E-05  5.67330787E-05  1.72147228E-05  1.46492229E-05  1.18099753E-05  9.95275945E-06  1.72984181E-05  4.61943832E-05  8.68152593E-05  1.12323720E-04  5.90289876E-05  6.01417706E-05  7.14606003E-05  1.42607041E-04
    1.53550211E-04  1.39747843E-04  9.85461793E-05  1.11009456E-04  9.06997777E-05  1.22569918E-04  7.12315891E-05  7.58894103E-05  1.00162886E-04  1.34353465E-04  1.12796184E-04  1.21067550E-04  1.82351453E-04  2.25876882E-04  1.80611769E-04  8.57668056E-05  6.24796484E-05  7.60267329E-05  8.43270970E-05  7.46637003E-05
    8.15846432E-05  1.12463219E-04  1.92814514E-04  1.15604353E-04  1.27979788E-04  1.01832114E-04  1.54055330E-04  9.74291039E-05  6.98377521E-05  5.21565347E-05  1.23993850E-04  9.58686222E-05  6.88998069E-05  3.22070810E-05  2.82214648E-05  3.15671495E-05  3.44370432E-05  3.29115467E-05  3.20660997E-05  1.64618474E-05
    2.29475342E-05  2.49059431E-05  3.62608293E-05  3.60577180E-05  2.27297368E-05  2.91602037E-05  2.34290804E-05  2.07328917E-05  2.74006315E-05  4.59646898E-05  7.35458614E-05  9.56269092E-05  1.37735632E-04  2.73212982E-04  3.89991428E-04  3.36633729E-04  3.10468671E-04  3.93103798E-04       0.00107906       0.00111158
    4.37994778E-05  3.84334344E-05  2.21227191E-05  1.90409276E-05  2.74381517E-05  3.52735609E-05  6.85557562E-05  6.23129442E-05  8.20963735E-05  6.25401373E-05  1.16138229E-04  1.11016404E-04  1.25320774E-04  4.88058604E-05  3.36086280E-05  1.62770793E-05  2.16479744E-05  2.09984443E-05  2.27465558E-05  1.98850935E-05
    2.03910533E-05  2.08921044E-05  3.05808660E-05  3.79375868E-05  3.18090040E-05  4.24006137E-05  4.33265143E-05  3.04647393E-05  1.70346408E-05  1.21872621E-05  8.15216869E-06  8.73944724E-06  9.12901374E-06  2.52071752E-05  4.80968893E-05  8.66888854E-05  6.39921259E-05  5.93166943E-05  8.99045103E-05  9.96366613E-05
    9.26881463E-05  1.15969565E-04  1.05217507E-04  9.21257357E-05  9.89622985E-05  6.44576946E-05  7.57126413E-05  8.45262242E-05  1.33050996E-04  1.59864472E-04  1.31633113E-04  1.25345197E-04  1.62020779E-04  2.34483405E-04  2.73959229E-04  1.14818539E-04  1.11503851E-04  7.34856453E-05  5.54744829E-05  5.80387787E-05
    8.46110891E-05  1.37750152E-04  1.65898875E-04  1.26081828E-04  1.14637006E-04  1.11978065E-04  1.43071103E-04  8.86345310E-05  6.14629559E-05  6.22860098E-05  8.88556130E-05  7.52075158E-05  8.23575144E-05  4.53416255E-05  4.75769098E-05  3.88380216E-05  4.73068554E-05  3.46017711E-05  3.70632016E-05  2.29707085E-05
    1.66639193E-05  1.77436825E-05  3.30763666E-05  2.40126628E-05  3.14575154E-05  2.18407862E-05  2.76888253E-05  1.67486899E-05  2.30562719E-05  3.58487731E-05  5.55801341E-05  7.09019135E-05  7.46828032E-05  1.08970782E-04  2.34432488E-04  2.00206758E-04  2.01407767E-04  3.36643909E-04  5.25406408E-04  7.02527080E-04
    5.48348793E-05  5.02764277E-05  3.96244619E-05  2.22949860E-05  2.66212768E-05  3.78543119E-05  5.17110604E-05  6.65682466E-05  6.25192772E-05  1.20599792E-04  9.65740195E-05  1.01061344E-04  8.76457143E-05  5.90755603E-05  2.94329493E-05  2.85059135E-05  2.09203307E-05  2.30783337E-05  2.01793372E-05  1.90417652E-05
    1.92427257E-05  1.70058922E-05  2.10653272E-05  2.51815577E-05  3.21570522E-05  4.28606234E-05  2.93496079E-05  2.71979103E-05  2.17959286E-05  1.12861743E-05  9.58041156E-06  6.41296335E-06  1.04563862E-05  1.73724779E-05  2.86683800E-05  4.51021302E-05  5.00857660E-05  8.42477239E-05  1.08644783E-04  1.18519444E-04
    8.06845004E-05  9.44238450E-05  8.62298184E-05  1.35349419E-04  9.41922394E-05  1.12492009E-04  7.82783119E-05  1.26706310E-04  1.16237972E-04  1.90812447E-04  1.72571646E-04  1.92642230E-04  1.71926574E-04  2.74607510E-04  1.99878356E-04  2.52428894E-04  1.69916411E-04  1.30862198E-04  5.51574758E-05  5.16821074E-05
    1.00083761E-04  1.52097459E-04  2.06111737E-04  1.41903107E-04  1.63704853E-04  2.05078572E-04  1.43535502E-04  7.61115098E-05  7.78987827E-05  6.95867169E-05  9.41060793E-05  7.04845998E-05  6.83139834E-05  7.65472165E-05  6.72911328E-05  6.60824732E-05  6.11988510E-05  5.32461958E-05  5.31722488E-05  2.30522384E-05
    2.00648485E-05  1.91982962E-05  1.87452232E-05  3.20300151E-05  2.12198885E-05  2.28232907E-05  2.32817382E-05  2.34547585E-05  2.57493015E-05  2.89458520E-05  4.36047161E-05  5.15184926E-05  6.15354199E-05  9.02780875E-05  1.14704421E-04  1.22255226E-04  1.50269481E-04  2.25202417E-04  3.35715241E-04  3.56682762E-04
    5.89088995E-05  8.40220355E-05  4.00781909E-05  3.89281112E-05  3.22826718E-05  5.04221415E-05  5.09780167E-05  4.82785305E-05  5.27619654E-05  9.45377351E-05  1.11676810E-04  9.88691552E-05  6.74353089E-05  4.58049757E-05  3.29567701E-05  3.03782876E-05  2.76522408E-05  2.60391987E-05  2.23830835E-05  1.68784675E-05
    1.55924604E-05  1.63448560E-05  1.61581012E-05  2.26645467E-05  3.23810703E-05  3.12337420E-05  2.44521276E-05  2.42863101E-05  2.37296063E-05  1.91752091E-05  8.52813607E-06  9.18543200E-06  8.82197668E-06  2.21095569E-05  2.25936537E-05  2.34257592E-05  4.74445375E-05  9.13308075E-05  1.17830646E-04  1.52192202E-04
    8.18672506E-05  8.74850591E-05  8.82625183E-05  1.03746747E-04  1.20138115E-04  1.17917721E-04  1.63308982E-04  1.48128387E-04  1.23412361E-04  1.94170428E-04  2.13252862E-04  2.79769463E-04  3.69369972E-04  2.62666557E-04  3.35932331E-04  3.16866456E-04  2.90372460E-04  1.77075152E-04  8.60648127E-05  8.55311997E-05
    9.87070901E-05  2.00177483E-04  1.71895192E-04  1.70735316E-04  2.60312456E-04  4.36761592E-04  2.51412782E-04  1.17399807E-04  8.75610179E-05  1.14727761E-04  1.06960393E-04  1.06163199E-04  7.70585302E-05  9.65814208E-05  1.11054363E-04  7.86932662E-05  8.72961594E-05  9.30011883E-05  6.84898919E-05  2.92251462E-05
    2.17457959E-05  1.83830406E-05  2.71451989E-05  2.06972669E-05  3.63141264E-05  1.58772370E-05  3.08341884E-05  3.17412603E-05  3.58644364E-05  3.77997319E-05  3.92587914E-05  4.06341539E-05  9.62087078E-05  8.05657476E-05  1.01618618E-04  7.45074762E-05  1.15993893E-04  1.75300836E-04  2.12270717E-04  2.37488191E-04
    1.12317083E-04  6.18100333E-05  5.27646219E-05  3.56485805E-05  4.18900548E-05  6.67861486E-05  3.90633049E-05  5.63201280E-05  4.17350380E-05  5.41113604E-05  8.58725153E-05  9.67641927E-05  6.26733279E-05  4.19438158E-05  2.88878521E-05  2.98930321E-05  2.14709963E-05  2.40579777E-05  2.07469696E-05  1.33513297E-05
    1.28991121E-05  9.73275485E-06  1.05553199E-05  1.97907724E-05  2.56148850E-05  2.54410467E-05  2.36160516E-05  2.01557953E-05  2.71108756E-05  1.72717819E-05  1.43135147E-05  7.20697937E-06  1.36848163E-05  1.64986347E-05  1.66856614E-05  1.66260945E-05  3.27910615E-05  6.66335775E-05  1.07227847E-04  9.03562785E-05
    8.47346899E-05  6.20510361E-05  9.36216051E-05  7.50110555E-05  9.25246216E-05  1.33801965E-04  1.58835233E-04  1.57565479E-04  1.34373304E-04  1.20913325E-04  2.13447983E-04  2.98840806E-04  3.67071969E-04  3.78535706E-04  3.76443224E-04  5.68681560E-04  3.29170053E-04  1.77965700E-04  1.46991165E-04  1.13158003E-04
    1.90884674E-04  1.65970746E-04  1.44669659E-04  1.69024068E-04  2.71260641E-04  4.43152884E-04  4.48015707E-04  2.13874856E-04  1.52020517E-04  1.00933432E-04  1.28700207E-04  9.03478838E-05  1.03718045E-04  1.25033565E-04  1.38248088E-04  9.28070409E-05  1.28169473E-04  9.78000208E-05  9.08742194E-05  3.78775131E-05
    2.31862816E-05  1.97915786E-05  2.41480369E-05  2.49586226E-05  2.16319601E-05  2.08786374E-05  2.54322867E-05  2.68575861E-05  4.61840452E-05  3.69004497E-05  3.81757872E-05  4.50136227E-05  1.12660245E-04  1.22282320E-04  9.09771400E-05  7.00215926E-05  9.27302834E-05  1.19874949E-04  1.92749464E-04  1.17761057E-04
    1.15886798E-04  9.92202845E-05  4.49690113E-05  5.49876176E-05  5.97823422E-05  5.11917840E-05  5.03873565E-05  4.86290391E-05  5.06510838E-05  4.22940604E-05  4.47732992E-05  6.85198236E-05  5.83699508E-05  5.11636338E-05  3.13395252E-05  2.67871040E-05  2.62249641E-05  1.82198408E-05  1.73819295E-05  1.66338984E-05
    9.39378141E-06  7.94150199E-06  7.04226170E-06  1.23794804E-05  1.64447360E-05  1.98269712E-05  2.01035013E-05  2.37466550E-05  1.92928281E-05  2.24267102E-05  9.70140205E-06  1.19900507E-05  1.42636368E-05  1.59832815E-05  1.58370101E-05  1.54888471E-05  2.82381085E-05  4.88716091E-05  6.37981480E-05  6.54819651E-05
    4.74462944E-05  5.52044848E-05  5.47852009E-05  4.15585056E-05  7.44274919E-05  8.53056613E-05  1.18557679E-04  1.11253028E-04  1.03411675E-04  9.12471719E-05  1.58577586E-04  2.24031655E-04  3.11302351E-04  3.16985237E-04  5.25799524E-04  5.64208878E-04  4.45177572E-04  2.19865385E-04  1.23485018E-04  1.81034663E-04
    1.85501428E-04  1.46800617E-04  1.00485419E-04  1.52054396E-04  2.29708262E-04  2.99420065E-04  3.92991129E-04  4.06430711E-04  2.31689102E-04  1.78213072E-04  7.76870886E-05  8.90150850E-05  8.34735615E-05  1.19784451E-04  1.12314112E-04  1.18748970E-04  1.20777002E-04  1.14655201E-04  6.13523988E-05  3.94550434E-05
    2.26143989E-05  2.01238584E-05  2.57921125E-05  1.77798012E-05  1.65112117E-05  1.56147828E-05  1.69750304E-05  2.67076608E-05  3.05249414E-05  3.35052313E-05  2.96864554E-05  3.35535014E-05  9.86053957E-05  1.10079394E-04  1.09885243E-04  6.34719711E-05  5.85571585E-05  9.39959930E-05  9.97032265E-05  9.43607617E-05
    1.44368981E-04  8.15582708E-05  6.88187034E-05  8.93289731E-05  7.20218740E-05  7.59980571E-05  4.12137091E-05  6.76095203E-05  5.57907564E-05  5.39506316E-05  4.05021118E-05  4.77359037E-05  5.19684683E-05  7.28481880E-05  2.97744012E-05  4.17249105E-05  2.48538751E-05  2.66848921E-05  1.49402256E-05  1.76287879E-05
    7.76085982E-06  7.85306570E-06  6.72771592E-06  1.19639113E-05  1.14387731E-05  1.68675691E-05  1.82430797E-05  2.56068755E-05  2.53846823E-05  1.85956209E-05  1.40879063E-05  1.43186408E-05  1.67334800E-05  1.71299095E-05  1.64191372E-05  2.30394235E-05  2.59823902E-05  4.08734599E-05  4.36892568E-05  3.95439494E-05