# File generated by Flopy version 3.5.0 on 03/08/2024 at 15:39:53.
BEGIN griddata
  strt
    INTERNAL  FACTOR  1.0
        15.00000000      15.00000000      15.00000000      15.00000000      15.00000000      15.00000000      15.00000000      15.00000000      15.00000000      15.00000000      15.00000000      15.00000000      15.00000000      15.00000000      15.00000000      15.00000000      15.00000000      15.00000000      15.00000000      15.00000000
        15.00000000      15.00000000      15.00000000      15.00000000      15.00000000      15.00000000      15.00000000      15.00000000      15.00000000      15.00000000      15.00000000      15.00000000      15.00000000      15.00000000      15.00000000      15.00000000      15.00000000      15.00000000      15.00000000      15.00000000
        15.00000000      15.00000000      15.00000000      15.00000000      15.00000000      15.00000000      15.00000000      15.00000000      15.00000000      15.00000000      15.00000000      15.00000000      15.00000000      15.00000000      15.00000000      15.00000000      15.00000000      15.00000000      15.00000000      15.00000000
        15.00000000      15.00000000      15.00000000      15.00000000      15.00000000      15.00000000      15.00000000      15.00000000      15.00000000      15.00000000      15.00000000      15.00000000      15.00000000      15.00000000      15.00000000      15.00000000      15.00000000      15.00000000      15.00000000      15.00000000
        15.00000000      15.00000000      15.00000000      15.00000000      15.00000000      15.00000000      15.00000000      15.00000000      15.00000000      15.00000000      15.00000000      15.00000000      15.00000000      15.00000000      15.00000000      15.00000000      15.00000000      15.00000000      15.00000000      15.00000000
        15.42122851      15.40667256      15.37365521      15.32864608      15.27923334      15.25725657      15.24402050      15.22010666      15.21470207      15.22488893      15.24447970      15.27543803      15.26000444      15.22303744      15.18231649      15.16449497      15.15150871      15.14768798      15.15046406      15.16268443
        15.15361032      15.14581184      15.12952426      15.12729941      15.12959771      15.13184660      15.11377166      15.10239778      15.09035737      15.08876204      15.07923966      15.06948704      15.06290538      15.06509488      15.06461720      15.05892549      15.05292415      15.05480057      15.05410773      15.05199633
        15.04637324      15.04170817      15.03447258      15.02756937      15.01875736      15.01792840      15.02206748      15.03228826      15.04324716      15.05066032      15.05482874      15.06499958      15.07160394      15.07120905      15.06715324      15.06560411      15.06379270      15.05770835      15.05377469      15.05365082
        15.05787581      15.06047546      15.05689590      15.05287975      15.05672367      15.05844576      15.05819870      15.05787737      15.05896643      15.06037957      15.05932390      15.05492209      15.04823307      15.04494003      15.04662981      15.04431566      15.03925616      15.03857625      15.04000789      15.04540831
        15.05141796      15.05584444      15.05891496      15.05880682      15.04832650      15.03811643      15.03143316      15.03004377      15.02909162      15.02842788      15.02593193      15.02308077      15.02304557      15.02513294      15.02421812      15.02346880      15.02492059      15.02680355      15.02683506      15.02573761
        15.76572963      15.77279199      15.74762456      15.68696022      15.60522979      15.53212160      15.48905891      15.46070262      15.45568526      15.44985446      15.46877536      15.49140595      15.47776054      15.42483478      15.36657025      15.31086397      15.27784885      15.25957292      15.25721301      15.26336478
        15.26465353      15.25065835      15.23310613      15.22447914      15.22709205      15.21668647      15.19910988      15.17822307      15.16018230      15.15262409      15.14635232      15.13372143      15.12291521      15.11901719      15.11317189      15.10923472      15.10504206      15.10711014      15.10765338      15.10109119
        15.08846918      15.07837623      15.07085503      15.06224372      15.05044776      15.04565872      15.05163521      15.06554698      15.08262198      15.09679707      15.11134413      15.12152276      15.12465887      15.12022902      15.11516556      15.10759519      15.10256431      15.09474403      15.09049100      15.08935644
        15.09488858      15.09944298      15.09732259      15.09271806      15.09624475      15.09774359      15.10074730      15.10397886      15.10847708      15.10818708      15.10636949      15.09947831      15.09375968      15.08791622      15.08920696      15.08783446      15.08194515      15.07537116      15.07874864      15.08652043
        15.09610443      15.09774403      15.10054768      15.09953367      15.08965448      15.07478457      15.06570919      15.06025181      15.06015089      15.05731328      15.05388061      15.05120105      15.04982242      15.04939671      15.04789167      15.04849613      15.05156711      15.05543854      15.05735101      15.05502159
        16.04171634      16.06312395      16.06527404      16.02849467      15.95196877      15.82383199      15.73592283      15.69327049      15.68140898      15.67315157      15.66933237      15.66506678      15.65326978      15.59902916      15.53082302      15.44455723      15.38497841      15.34682827      15.33244472      15.33170890
        15.33617460      15.32718767      15.31516752      15.30211652      15.29347150      15.27975398      15.25852136      15.23574265      15.21553717      15.20185785      15.19607995      15.18803675      15.17954525      15.17008157      15.15972427      15.15399137      15.15046843      15.15106431      15.15218770      15.14520373
        15.12987258      15.11523616      15.10315308      15.09618120      15.08906325      15.08508210      15.08993676      15.10215217      15.11652728      15.13527779      15.16008087      15.17664474      15.17518052      15.16766790      15.15801545      15.14769247      15.13998949      15.13337133      15.12625946      15.12357034
        15.12555070      15.12662958      15.12605897      15.12512285      15.12671040      15.12916963      15.13351989      15.14038135      15.14600491      15.14786826      15.14561423      15.13750624      15.13371757      15.12977073      15.12815882      15.12836412      15.12512126      15.11696702      15.11669416      15.12404470
        15.13334689      15.13522381      15.13456746      15.13067836      15.12153021      15.10923562      15.09835937      15.09313794      15.09120982      15.08660900      15.08132780      15.07948074      15.07791464      15.07643870      15.07444110      15.07554460      15.07916122      15.08552852      15.08758628      15.08765065
        16.34678701      16.33654867      16.32760222      16.33739769      16.28498239      16.16702104      16.04719308      15.96926258      15.91221192      15.89315618      15.86724387      15.83940793      15.81822971      15.76993202      15.68495208      15.58247787      15.49324115      15.44108894      15.40747052      15.39367221
        15.38938003      15.38808098      15.38654977      15.37537003      15.35602552      15.33650955      15.31121604      15.28740822      15.26676496      15.25097299      15.24243395      15.24060143      15.23545504      15.22684344      15.21320903      15.20390308      15.19678087      15.19151549      15.18908772      15.18428884
        15.17384276      15.15959078      15.14175921      15.13239208      15.12967609      15.13133912      15.13651670      15.14524527      15.15419839      15.17628970      15.20878165      15.23090601      15.22741556      15.21930818      15.20879297      15.19560907      15.18006289      15.17029393      15.16171275      15.15911154
        15.15601488      15.15303791      15.15195986      15.15447916      15.15635609      15.16059100      15.16553680      15.17207270      15.17745484      15.17864132      15.17631766      15.17258656      15.17080908      15.16958454      15.16601016      15.16482623      15.16320221      15.15923056      15.15655153      15.15685736
        15.16280943      15.16749872      15.16529614      15.15905000      15.15074427      15.14084279      15.13286090      15.12556548      15.12011726      15.11422291      15.10815081      15.10509782      15.10259436      15.10195340      15.10252707      15.10400266      15.10946732      15.11408087      15.11606315      15.11847266
        16.70826234      16.65893995      16.61667243      16.61115862      16.58485913      16.51550199      16.41465972      16.32953941      16.21386928      16.13542228      16.06821378      16.02627135      15.99682162      15.94852622      15.85817147      15.73932271      15.61961766      15.54819835      15.50341113      15.46957661
        15.45283689      15.45113132      15.45647562      15.45072925      15.43002040      15.40358845      15.37843521      15.34897473      15.32705076      15.30526271      15.30069856      15.29984596      15.29913692      15.29086915      15.27805477      15.26238788      15.25392256      15.23976501      15.22917931      15.22451001
        15.22229757      15.21433744      15.19846636      15.18307659      15.18105757      15.18421605      15.19148107      15.19705631      15.20644382      15.23310159      15.26210210      15.27893658      15.27973041      15.27266670      15.26333450      15.25117712      15.23116808      15.21362596      15.20241187      15.19890618
        15.19587368      15.18888053      15.18872832      15.19035521      15.19297055      15.19648078      15.20040924      15.20715661      15.21118039      15.20844883      15.20686059      15.20726921      15.20829898      15.20649454      15.20445725      15.20065725      15.19725476      15.19588042      15.19396661      15.19123846
        15.19282251      15.19616055      15.19578950      15.18948537      15.18251004      15.17532822      15.17185405      15.16134384      15.14830260      15.13958162      15.13436020      15.12922209      15.12746702      15.12579312      15.12901201      15.13432221      15.14094901      15.14331844      15.14509645      15.14748025
        17.03915454      16.99769472      16.94235916      16.89182024      16.86479464      16.83252881      16.75655227      16.68150125      16.56478527      16.40869518      16.28879280      16.21404222      16.16243208      16.11610328      16.03744656      15.91548985      15.76937608      15.66436741      15.60652274      15.55955911
        15.53367913      15.52417776      15.52596249      15.52332755      15.50679133      15.47940477      15.46022911      15.43303124      15.40275724      15.37646103      15.36609012      15.36526316      15.36512336      15.35881955      15.34831824      15.32852003      15.31515908      15.29497290      15.27880159      15.27182347
        15.27288916      15.27302557      15.26536411      15.24918884      15.24266632      15.24441471      15.24981821      15.25216974      15.27057946      15.29536972      15.31796499      15.32819869      15.33048684      15.32555146      15.32107895      15.31174923      15.28871159      15.26182533      15.24503992      15.24332630
        15.24387771      15.23845197      15.23679848      15.24056274      15.24040673      15.23769523      15.23808333      15.24345460      15.24637665      15.24488592      15.24276310      15.24504926      15.24352330      15.24214189      15.23828676      15.23349503      15.22970642      15.22746001      15.22612074      15.22462588
        15.22298574      15.22416188      15.22536845      15.22261199      15.21719085      15.21404657      15.21167630      15.19831385      15.17906642      15.16612551      15.15850588      15.15383710      15.15203265      15.15077142      15.15472476      15.16289189      15.16981300      15.17119305      15.17273026      15.17554230
        17.31292748      17.29324815      17.25262572      17.20670406      17.16317831      17.14504251      17.07952502      16.99885993      16.87659220      16.72026100      16.54931401      16.42758104      16.33243024      16.26783210      16.18412570      16.08126593      15.93206095      15.79478566      15.70514007      15.65404964
        15.61419483      15.59767274      15.59188486      15.59069423      15.57677995      15.55768641      15.54373105      15.52748021      15.49502238      15.46372643      15.43585741      15.42671302      15.42236834      15.41794829      15.41037476      15.39585215      15.37446061      15.35181435      15.33222554      15.32328814
        15.32281812      15.32521507      15.32518220      15.31341917      15.30612559      15.30474731      15.30479185      15.31235287      15.33169742      15.35602585      15.37331838      15.37665210      15.37667486      15.37555944      15.37362556      15.36663796      15.34325781      15.31466014      15.29344505      15.28848711
        15.28698067      15.28787347      15.28777600      15.29370181      15.28935997      15.28312876      15.27694015      15.27705369      15.27826658      15.28095518      15.28275217      15.28512543      15.28160823      15.27691703      15.26850934      15.26262701      15.25892754      15.25658109      15.25335322      15.25242774
        15.24931513      15.24941592      15.25142980      15.25284772      15.25239498      15.25284628      15.24344789      15.22866193      15.20761873      15.19276268      15.18192407      15.17674727      15.17348413      15.17368660      15.17802256      15.18590213      15.19071545      15.19321280      15.19519184      15.19713338
        17.59013305      17.56981515      17.54989933      17.52752829      17.49019655      17.46552872      17.41879269      17.31748828      17.17110252      17.01534804      16.85976153      16.70239377      16.56343056      16.45194829      16.33130974      16.21982705      16.08707617      15.93975293      15.82807560      15.75303154
        15.69862740      15.66745260      15.65209632      15.64960894      15.64444158      15.64266491      15.63588185      15.62474835      15.59622103      15.55894530      15.51680874      15.49028393      15.47667843      15.46960008      15.46754501      15.45906652      15.43632693      15.41047561      15.38949665      15.37558381
        15.37094822      15.37006097      15.37205263      15.36985413      15.36698128      15.36190211      15.36223150      15.37009824      15.39304279      15.41229795      15.42493708      15.42427416      15.42148062      15.42276736      15.42041807      15.40979835      15.39032019      15.36410393      15.34093600      15.32772776
        15.32537459      15.32795030      15.33307181      15.33405670      15.33039829      15.32538789      15.31980744      15.31123373      15.30968270      15.31420552      15.31977925      15.32342854      15.31927520      15.30822584      15.29854788      15.29130756      15.28670827      15.28374169      15.28083819      15.27783858
        15.27351808      15.27200419      15.27330943      15.27740289      15.28305815      15.28574859      15.27360938      15.25405416      15.23369058      15.21617714      15.20489275      15.19802565      15.19399649      15.19392469      15.19751511      15.20191020      15.20536186      15.20856092      15.21200310      15.21379414
        17.87763519      17.85123128      17.85566200      17.83701857      17.81190668      17.77772396      17.74530601      17.62920448      17.48512979      17.30948957      17.16125193      17.02102665      16.85845876      16.68985396      16.52638437      16.37090203      16.23370844      16.08817132      15.96014023      15.86656758
        15.79486954      15.74592078      15.71853265      15.70450381      15.71399168      15.73073872      15.74002950      15.73456545      15.70415471      15.65820948      15.60589924      15.55966774      15.53845693      15.52783312      15.52602178      15.51740768      15.49752612      15.47272618      15.45102783      15.43453296
        15.42372210      15.41328917      15.41293368      15.41981587      15.42320846      15.42190871      15.42257394      15.43352876      15.45379124      15.46827990      15.47841026      15.47649321      15.47570099      15.47293510      15.46676822      15.45310145      15.43623704      15.40765845      15.38408542      15.36705837
        15.36281481      15.36747218      15.37338734      15.36991006      15.36671605      15.36378081      15.36314891      15.35308235      15.34744476      15.34920582      15.35709855      15.36131312      15.35722810      15.34644387      15.33650389      15.32690611      15.31815083      15.31350054      15.30825426      15.30372642
        15.29991885      15.29695705      15.29690056      15.30207670      15.30956732      15.31529528      15.30732029      15.28808635      15.26330874      15.24328264      15.22708834      15.21920753      15.21509230      15.21500605      15.21481218      15.21600310      15.21806370      15.22111897      15.22585135      15.22917289
        18.16431257      18.14353519      18.13251588      18.11997605      18.08941578      18.04862135      17.98862879      17.88349976      17.74203533      17.58131833      17.42598834      17.30723888      17.15799288      16.95762222      16.75632144      16.55921299      16.38600973      16.22967325      16.08948593      15.97562846
        15.89686578      15.83611796      15.79866254      15.78077468      15.78771499      15.81412864      15.83597522      15.83858572      15.80865955      15.75769047      15.69423945      15.63453315      15.60175963      15.59253361      15.58446228      15.57569785      15.55380182      15.53134633      15.50851177      15.49416296
        15.47936954      15.46573481      15.45803074      15.46462786      15.47108112      15.47778213      15.48352456      15.49581642      15.51218635      15.52451122      15.52586562      15.52994660      15.53439940      15.53041605      15.51881851      15.50069993      15.48171975      15.45563164      15.43157980      15.41181777
        15.40507229      15.41064661      15.41367093      15.40872578      15.40549351      15.40424128      15.40341219      15.39861656      15.39002862      15.39051684      15.39766400      15.40007694      15.39572483      15.38620555      15.37677096      15.36726316      15.35661210      15.34872709      15.33857487      15.33261995
        15.32990664      15.32783316      15.32721492      15.33097687      15.33690422      15.34287866      15.34064916      15.32723976      15.30697883      15.28104902      15.25525935      15.24262299      15.23693186      15.23706223      15.23477070      15.23305746      15.23190884      15.23466097      15.23846408      15.24221706
        18.47224121      18.45630944      18.39694414      18.36090199      18.32863033      18.26227042      18.17538358      18.06646670      17.93257827      17.78117316      17.63543614      17.52341215      17.39700083      17.20931147      16.98431472      16.75275199      16.55392684      16.37877576      16.22467669      16.09576751
        16.00493603      15.93242063      15.89955383      15.87853120      15.88195712      15.89952369      15.91524723      15.91992214      15.89655598      15.85234215      15.78992950      15.71825423      15.67131989      15.64906260      15.63900089      15.63065306      15.61007534      15.58400742      15.56076221      15.54336510
        15.53056833      15.52154757      15.51209254      15.51085343      15.51408517      15.52418783      15.53626340      15.55213153      15.56781903      15.57117602      15.57025937      15.57627900      15.58412875      15.58678942      15.57630918      15.55525642      15.53042650      15.50419644      15.47852873      15.45921038
        15.45331649      15.45620960      15.45543857      15.45095918      15.44973579      15.44867345      15.44734983      15.44199785      15.43454976      15.43198449      15.43660060      15.43715618      15.43412115      15.42621625      15.41831361      15.40803106      15.39777593      15.38539303      15.37483732      15.36390852
        15.35982985      15.35765104      15.35851933      15.36094132      15.36420076      15.36819417      15.36830277      15.36208620      15.34949334      15.32505200      15.29483306      15.27328795      15.26127871      15.25826180      15.25700770      15.25360656      15.25012229      15.24959846      15.25112822      15.25275921
        18.81329356      18.80173260      18.71096128      18.62317650      18.56085173      18.46781518      18.36258690      18.24758952      18.11236106      17.95776370      17.81311220      17.69180075      17.59274802      17.42621862      17.20892407      16.95820927      16.73707790      16.55030110      16.39461661      16.25778232
        16.16011354      16.06482264      16.02257942      16.00699114      16.00540971      16.00031457      15.99940754      15.99268718      15.98032616      15.94031221      15.88797041      15.82281925      15.75471667      15.70692493      15.68946252      15.67868493      15.66494066      15.64083785      15.61716040      15.59202623
        15.57812827      15.57285869      15.56883627      15.56413224      15.56567176      15.57010759      15.58545263      15.60307756      15.61171857      15.61471179      15.61414145      15.61811020      15.62422556      15.62809030      15.62694888      15.61327552      15.59000595      15.55889703      15.52641197      15.50909532
        15.50640458      15.50481814      15.50274593      15.49939661      15.50011256      15.49941986      15.49635201      15.48777317      15.48165392      15.47563506      15.47350474      15.47025680      15.47167384      15.46636542      15.45783772      15.44657811      15.43536829      15.42203596      15.41297149      15.39874817
        15.38894263      15.38503642      15.38511262      15.38554382      15.38840269      15.39011539      15.39199719      15.39072802      15.38248226      15.36276138      15.33755774      15.31377099      15.29381692      15.28252741      15.28004382      15.27586442      15.27144345      15.26743482      15.26448466      15.26387869
        19.13738555      19.12544767      19.05419685      18.93719339      18.82504101      18.71137830      18.57485229      18.44837870      18.30852810      18.16336009      18.00340719      17.86837227      17.76315898      17.62001115      17.41564992      17.17542990      16.93978909      16.74403265      16.58442735      16.44831733
        16.34683536      16.25250460      16.18429845      16.15746062      16.14390868      16.12024380      16.09812920      16.08418034      16.07221591      16.03169225      15.98071038      15.92195012      15.85745036      15.78710807      15.74897642      15.72827888      15.71791102      15.70077025      15.67890762      15.65393035
        15.63355661      15.62411370      15.62134152      15.62140917      15.62265816      15.62752925      15.63763516      15.64734200      15.65044663      15.65410572      15.65748678      15.66154749      15.66332671      15.66629683      15.66687405      15.66671220      15.65453021      15.62718840      15.58827491      15.56477904
        15.55947865      15.55683320      15.55313001      15.55359339      15.55673542      15.55939955      15.55054315      15.54098221      15.53409667      15.52581212      15.51554571      15.50936269      15.50719385      15.50592840      15.49873663      15.48639742      15.47396666      15.46026778      15.44780854      15.43261824
        15.41915841      15.41124865      15.40662696      15.40741341      15.40894496      15.41029598      15.41269417      15.41442478      15.41038845      15.39649516      15.37728822      15.35813822      15.33930514      15.32098294      15.30903893      15.30314790      15.29681042      15.28941280      15.28285402      15.28029095
        19.39605829      19.38614919      19.33601943      19.24653514      19.11925294      18.99171032      18.82192887      18.66857179      18.50109793      18.35790438      18.21191813      18.07003432      17.93244882      17.79397796      17.58886465      17.37401259      17.14628774      16.94342894      16.76956617      16.62043465
        16.50968762      16.42106004      16.34388393      16.29729558      16.26547579      16.23008593      16.20191400      16.17924874      16.15847693      16.11955918      16.06795840      16.00991770      15.94491433      15.88200338      15.82866593      15.79017238      15.77229867      15.75436703      15.73403605      15.71516186
        15.69358876      15.67745603      15.67143945      15.67048475      15.67326883      15.68019645      15.68553783      15.68764282      15.68609059      15.68897574      15.69476916      15.70110228      15.70414448      15.70429977      15.70711501      15.71164449      15.70502282      15.68976606      15.66000991      15.63192519
        15.61582809      15.60825353      15.60207527      15.60409057      15.61099746      15.61573935      15.60847778      15.59828962      15.58849355      15.57785868      15.56478165      15.55568587      15.54717117      15.54478045      15.53729924      15.52508542      15.51177097      15.49879744      15.48374298      15.46370309
        15.44718729      15.43615332      15.42997844      15.42821138      15.42852039      15.42830341      15.43031078      15.43298110      15.43200400      15.42480581      15.41214541      15.39920445      15.38762801      15.36915252      15.35226499      15.33988264      15.32924644      15.31764027      15.30877576      15.30433276
        19.63056578      19.59881236      19.55283431      19.48709478      19.38573297      19.25999712      19.08976562      18.91694608      18.71519166      18.52379106      18.39193866      18.26378053      18.11918885      17.95425657      17.74967434      17.53096579      17.31520295      17.11394183      16.93771516      16.77415428
        16.64509927      16.54645191      16.46496093      16.40669660      16.36178593      16.32300840      16.29233285      16.25863051      16.22937825      16.19474633      16.14202455      16.08594835      16.02651303      15.96499945      15.91553989      15.86598823      15.82749575      15.80043005      15.77978622      15.76091175
        15.74435355      15.72569759      15.71719431      15.71004860      15.71284453      15.71736766      15.72171454      15.72015387      15.71843296      15.71788877      15.72456940      15.73118768      15.73647898      15.73879841      15.74402275      15.74644178      15.74279230      15.73213165      15.71643291      15.69403465
        15.67242847      15.65523606      15.64497092      15.64574274      15.65009542      15.65353371      15.65448135      15.65044223      15.63898231      15.62433243      15.60946218      15.59739983      15.58679622      15.57807970      15.56946619      15.55629196      15.54383029      15.53062701      15.51542030      15.49468444
        15.47435173      15.46097044      15.45311952      15.44716585      15.44481063      15.44403164      15.44501617      15.44667184      15.44786499      15.44572249      15.43997060      15.43202133      15.42345286      15.41194133      15.39744080      15.38302766      15.36589709      15.35125486      15.34169456      15.33475691
        19.83341983      19.79799005      19.75398689      19.69704263      19.61037883      19.49097596      19.34634521      19.17332489      18.98095498      18.74495148      18.56052694      18.42954645      18.29210256      18.12493270      17.90767514      17.68659322      17.47022176      17.25719301      17.08059263      16.91553960
        16.76920598      16.65721095      16.56183796      16.49130883      16.44003919      16.39995248      16.36534188      16.32926372      16.29239999      16.25742554      16.21151663      16.15796431      16.09994241      16.04186449      15.99262711      15.94196071      15.88837287      15.84960188      15.82404563      15.80388142
        15.78745405      15.77055688      15.75683174      15.74796532      15.74722773      15.74833004      15.74872023      15.74789030      15.74723240      15.74632415      15.75070806      15.75512732      15.76015230      15.76653212      15.77253981      15.77543040      15.77359298      15.76626297      15.75537665      15.73947107
        15.72069443      15.69977943      15.68538200      15.68090505      15.67972491      15.68000945      15.68443070      15.68729257      15.68152641      15.66552049      15.64588773      15.63162270      15.61861145      15.60652472      15.59521553      15.58382000      15.57108512      15.55765154      15.54113421      15.52156608
        15.49941707      15.48368403      15.47279194      15.46532021      15.46020475      15.45944099      15.45844695      15.45996003      15.46112422      15.46129196      15.45861384      15.45259841      15.44468641      15.43969921      15.43187033      15.42052627      15.40245240      15.38720043      15.37663974      15.37250576
        19.98953915      19.97703063      19.94523948      19.90135430      19.81824729      19.70511685      19.57075498      19.41116361      19.23981736      19.02426177      18.78312304      18.59122174      18.43547804      18.27204769      18.05717904      17.82924191      17.61857153      17.40819975      17.20369982      17.04042148
        16.87845833      16.75423737      16.65075831      16.56998877      16.51148536      16.46649167      16.42700966      16.39199186      16.35335949      16.31822231      16.27222891      16.22273909      16.16662953      16.11108277      16.06096722      16.01219766      15.95511145      15.91008467      15.87657063      15.85357327