# File generated by Flopy version 3.5.0 on 03/08/2024 at 15:39:55.
BEGIN options
END options

BEGIN dimensions
  MAXBOUND  5000
END dimensions

BEGIN period  1
  1 1 1.43576759E-08
  1 2 1.37897647E-08
  1 3 1.31469686E-08
  1 4 1.31166087E-08
  1 5 1.32938921E-08
  1 6 1.29535809E-08
  1 7 1.23220520E-08
  1 8 1.21579966E-08
  1 9 1.23830895E-08
  1 10 1.21548338E-08
  1 11 1.13008152E-08
  1 12 1.06758359E-08
  1 13 1.08134415E-08
  1 14 1.11348087E-08
  1 15 1.10095606E-08
  1 16 1.08030639E-08
  1 17 1.11066927E-08
  1 18 1.15100334E-08
  1 19 1.10949569E-08
  1 20 9.88702070E-09
  1 21 8.83261137E-09
  1 22 8.34705601E-09
  1 23 7.87234136E-09
  1 24 7.11214158E-09
  1 25 6.72955950E-09
  1 26 7.24485731E-09
  1 27 8.01354549E-09
  1 28 8.08898142E-09
  1 29 7.58482143E-09
  1 30 7.30180064E-09
  1 31 7.32652461E-09
  1 32 7.01362400E-09
  1 33 6.32863002E-09
  1 34 6.15451928E-09
  1 35 6.93702269E-09
  1 36 7.92586184E-09
  1 37 8.30656705E-09
  1 38 8.33782246E-09
  1 39 8.64044409E-09
  1 40 8.95753990E-09
  1 41 8.57910064E-09
  1 42 7.71319890E-09
  1 43 7.40286418E-09
  1 44 8.04025362E-09
  1 45 8.92709740E-09
  1 46 9.56347449E-09
  1 47 1.04336763E-08
  1 48 1.19739501E-08
  1 49 1.35625381E-08
  1 50 1.43451781E-08
  1 51 1.45446831E-08
  1 52 1.50363177E-08
  1 53 1.59031442E-08
  1 54 1.64047203E-08
  1 55 1.63600432E-08
  1 56 1.65322956E-08
  1 57 1.73388916E-08
  1 58 1.81077439E-08
  1 59 1.81814643E-08
  1 60 1.80059393E-08
  1 61 1.83564515E-08
  1 62 1.90310173E-08
  1 63 1.92390831E-08
  1 64 1.90000579E-08
  1 65 1.91376675E-08
  1 66 1.98733399E-08
  1 67 2.04346391E-08
  1 68 2.03607617E-08
  1 69 2.02765029E-08
  1 70 2.08104591E-08
  1 71 2.15066077E-08
  1 72 2.15854408E-08
  1 73 2.12428305E-08
  1 74 2.12628032E-08
  1 75 2.16236066E-08
  1 76 2.15108752E-08
  1 77 2.07381431E-08
  1 78 2.01495998E-08
  1 79 2.03042323E-08
  1 80 2.06654683E-08
  1 81 2.06400927E-08
  1 82 2.06406769E-08
  1 83 2.13229185E-08
  1 84 2.23078549E-08
  1 85 2.26141158E-08
  1 86 2.21169468E-08
  1 87 2.15963297E-08
  1 88 2.13409462E-08
  1 89 2.07196057E-08
  1 90 1.94353198E-08
  1 91 1.82605558E-08
  1 92 1.79267194E-08
  1 93 1.80124213E-08
  1 94 1.77036902E-08
  1 95 1.71268196E-08
  1 96 1.70073436E-08
  1 97 1.72986610E-08
  1 98 1.71890772E-08
  1 99 1.65104641E-08
  1 100 1.61332479E-08
  1 101 1.31267742E-08
  1 102 1.26838414E-08
  1 103 1.27338428E-08
  1 104 1.25267798E-08
  1 105 1.18503155E-08
  1 106 1.14523733E-08
  1 107 1.17657406E-08
  1 108 1.21323926E-08
  1 109 1.18781296E-08
  1 110 1.14145564E-08
  1 111 1.14896764E-08
  1 112 1.18722121E-08
  1 113 1.17197328E-08
  1 114 1.09951268E-08
  1 115 1.05056281E-08
  1 116 1.05081274E-08
  1 117 1.02857124E-08
  1 118 9.43013413E-09
  1 119 8.62755170E-09
  1 120 8.58141669E-09
  1 121 8.88952119E-09
  1 122 8.77051762E-09
  1 123 8.37645546E-09
  1 124 8.44453071E-09
  1 125 8.91162882E-09
  1 126 8.90892126E-09
  1 127 8.18848858E-09
  1 128 7.56320405E-09
  1 129 7.60560156E-09
  1 130 7.80700583E-09
  1 131 7.58867411E-09
  1 132 7.37845759E-09
  1 133 7.87093994E-09
  1 134 8.73495603E-09
  1 135 9.01528633E-09
  1 136 8.59712067E-09
  1 137 8.28703003E-09
  1 138 8.42054483E-09
  1 139 8.39848596E-09
  1 140 7.92058625E-09
  1 141 7.74073822E-09
  1 142 8.57345838E-09
  1 143 9.96106294E-09
  1 144 1.10108475E-08
  1 145 1.17495286E-08
  1 146 1.28248102E-08
  1 147 1.41416132E-08
  1 148 1.48456595E-08
  1 149 1.47310662E-08
  1 150 1.46655126E-08
  1 151 1.52680347E-08
  1 152 1.60409281E-08
  1 153 1.63725582E-08
  1 154 1.66390617E-08
  1 155 1.75000686E-08
  1 156 1.86212017E-08
  1 157 1.90701004E-08
  1 158 1.87737432E-08
  1 159 1.85913796E-08
  1 160 1.88983116E-08
  1 161 1.90895770E-08
  1 162 1.88034966E-08
  1 163 1.87030321E-08
  1 164 1.94205918E-08
  1 165 2.04491181E-08
  1 166 2.08910977E-08
  1 167 2.08235440E-08
  1 168 2.09969394E-08
  1 169 2.14380024E-08
  1 170 2.13832254E-08
  1 171 2.06574023E-08
  1 172 2.01054599E-08
  1 173 2.02928095E-08
  1 174 2.06584406E-08
  1 175 2.05435974E-08
  1 176 2.03252445E-08
  1 177 2.07240337E-08
  1 178 2.14974253E-08
  1 179 2.17823001E-08
  1 180 2.15139083E-08
  1 181 2.14903336E-08
  1 182 2.19653532E-08
  1 183 2.21747742E-08
  1 184 2.16073449E-08
  1 185 2.08497219E-08
  1 186 2.05716581E-08
  1 187 2.04048615E-08
  1 188 1.96414526E-08
  1 189 1.85435847E-08
  1 190 1.79951284E-08
  1 191 1.80644853E-08
  1 192 1.79218983E-08
  1 193 1.72496467E-08
  1 194 1.67443427E-08
  1 195 1.68815604E-08
  1 196 1.70934490E-08
  1 197 1.67878061E-08
  1 198 1.64550906E-08
  1 199 1.69334639E-08
  1 200 1.80449388E-08
  1 201 1.18540147E-08
  1 202 1.19399404E-08
  1 203 1.16742120E-08
  1 204 1.14062839E-08
  1 205 1.17904105E-08
  1 206 1.24991221E-08
  1 207 1.25881593E-08
  1 208 1.19545612E-08
  1 209 1.14388423E-08
  1 210 1.14137093E-08
  1 211 1.12595036E-08
  1 212 1.05787126E-08
  1 213 1.00114293E-08
  1 214 1.02094670E-08
  1 215 1.07101361E-08
  1 216 1.06529019E-08
  1 217 1.01452104E-08
  1 218 9.97833648E-09
  1 219 1.02142119E-08
  1 220 1.00798775E-08
  1 221 9.34196051E-09
  1 222 8.78030159E-09
  1 223 8.92038651E-09
  1 224 9.17716351E-09
  1 225 8.87178425E-09
  1 226 8.38534570E-09
  1 227 8.48579754E-09
  1 228 8.99434102E-09
  1 229 9.08161724E-09
  1 230 8.68032245E-09
  1 231 8.58237510E-09
  1 232 9.04786882E-09
  1 233 9.31526334E-09
  1 234 8.86932932E-09
  1 235 8.31649605E-09
  1 236 8.38648971E-09
  1 237 8.77645398E-09
  1 238 8.80219629E-09
  1 239 8.70355472E-09
  1 240 9.32136612E-09
  1 241 1.06639842E-08
  1 242 1.18091383E-08
  1 243 1.23289601E-08
  1 244 1.28416295E-08
  1 245 1.38019932E-08
  1 246 1.46528699E-08
  1 247 1.48114318E-08
  1 248 1.47810990E-08
  1 249 1.54320658E-08
  1 250 1.66199222E-08
  1 251 1.74580208E-08
  1 252 1.77568449E-08
  1 253 1.81853331E-08
  1 254 1.89360437E-08
  1 255 1.92557474E-08
  1 256 1.87059533E-08
  1 257 1.80147071E-08
  1 258 1.80340434E-08
  1 259 1.85249633E-08
  1 260 1.87700416E-08
  1 261 1.88928930E-08
  1 262 1.95903590E-08
  1 263 2.07552222E-08
  1 264 2.14134718E-08
  1 265 2.11677471E-08
  1 266 2.07474098E-08
  1 267 2.07620452E-08
  1 268 2.07870814E-08
  1 269 2.02974965E-08
  1 270 1.97743648E-08
  1 271 2.00179762E-08
  1 272 2.08060007E-08
  1 273 2.12000906E-08
  1 274 2.10157085E-08
  1 275 2.09949231E-08
  1 276 2.14404700E-08
  1 277 2.16814809E-08
  1 278 2.12800776E-08
  1 279 2.08733605E-08
  1 280 2.11575399E-08
  1 281 2.17147471E-08
  1 282 2.16782332E-08
  1 283 2.11111119E-08
  1 284 2.07748024E-08
  1 285 2.07320473E-08
  1 286 2.02164112E-08
  1 287 1.90039871E-08
  1 288 1.79194400E-08
  1 289 1.75724860E-08
  1 290 1.74497550E-08
  1 291 1.68884025E-08
  1 292 1.62522339E-08
  1 293 1.63049442E-08
  1 294 1.68785861E-08
  1 295 1.71430395E-08
  1 296 1.70251356E-08
  1 297 1.73381096E-08
  1 298 1.83804332E-08
  1 299 1.93855108E-08
  1 300 1.97556862E-08
  1 301 1.21233344E-08
  1 302 1.21124056E-08
  1 303 1.22805565E-08
  1 304 1.28093001E-08
  1 305 1.29349720E-08
  1 306 1.21885667E-08
  1 307 1.12674755E-08
  1 308 1.10141507E-08
  1 309 1.11857060E-08
  1 310 1.10456615E-08
  1 311 1.07026561E-08
  1 312 1.08794616E-08
  1 313 1.15323124E-08
  1 314 1.17462721E-08
  1 315 1.11558367E-08
  1 316 1.05096330E-08
  1 317 1.04305116E-08
  1 318 1.04756807E-08
  1 319 1.00563709E-08
  1 320 9.57860692E-09
  1 321 9.80139398E-09
  1 322 1.04957689E-08
  1 323 1.07222407E-08
  1 324 1.02957653E-08
  1 325 9.97940212E-09
  1 326 1.01155230E-08
  1 327 1.00564368E-08
  1 328 9.35697520E-09
  1 329 8.65027451E-09
  1 330 8.66600375E-09
  1 331 9.04554045E-09
  1 332 8.97687879E-09
  1 333 8.57259746E-09
  1 334 8.65237573E-09
  1 335 9.32635939E-09
  1 336 9.81976270E-09
  1 337 9.83417755E-09
  1 338 1.00927663E-08
  1 339 1.11117097E-08
  1 340 1.22887435E-08
  1 341 1.28713669E-08
  1 342 1.31609897E-08
  1 343 1.39146191E-08
  1 344 1.49946855E-08
  1 345 1.55945113E-08
  1 346 1.56476427E-08
  1 347 1.59838231E-08
  1 348 1.69367673E-08
  1 349 1.77692312E-08
  1 350 1.78958674E-08
  1 351 1.78218170E-08
  1 352 1.82169621E-08
  1 353 1.87447378E-08
  1 354 1.86736534E-08
  1 355 1.82213782E-08
  1 356 1.83015713E-08
  1 357 1.90663660E-08
  1 358 1.97015994E-08
  1 359 1.97999527E-08
  1 360 1.99592115E-08
  1 361 2.06102607E-08
  1 362 2.11338384E-08
  1 363 2.08318189E-08
  1 364 2.01220584E-08
  1 365 1.99121334E-08
  1 366 2.01969039E-08
  1 367 2.02327779E-08
  1 368 1.99340816E-08
  1 369 2.00578236E-08
  1 370 2.08511258E-08
  1 371 2.15050532E-08
  1 372 2.13999406E-08
  1 373 2.10608012E-08
  1 374 2.12225654E-08
  1 375 2.16149191E-08
  1 376 2.15237744E-08
  1 377 2.11173366E-08
  1 378 2.12106277E-08
  1 379 2.18380165E-08
  1 380 2.20803675E-08
  1 381 2.14780208E-08
  1 382 2.06658404E-08
  1 383 2.02027402E-08
  1 384 1.96428217E-08
  1 385 1.84440881E-08
  1 386 1.71206454E-08
  1 387 1.65994126E-08
  1 388 1.68157092E-08
  1 389 1.69063378E-08
  1 390 1.66562174E-08
  1 391 1.67450500E-08
  1 392 1.74259109E-08
  1 393 1.79623436E-08
  1 394 1.78328102E-08
  1 395 1.76479409E-08
  1 396 1.81828300E-08
  1 397 1.91348344E-08
  1 398 1.96858317E-08
  1 399 1.98740088E-08
  1 400 2.04257339E-08
  1 401 1.22534640E-08
  1 402 1.23476101E-08
  1 403 1.25588643E-08
  1 404 1.21596000E-08
  1 405 1.13611259E-08
  1 406 1.10883575E-08
  1 407 1.15211187E-08
  1 408 1.18587816E-08
  1 409 1.16864477E-08
  1 410 1.16034985E-08
  1 411 1.20676771E-08
  1 412 1.24838672E-08
  1 413 1.21462078E-08
  1 414 1.14461808E-08
  1 415 1.12740374E-08
  1 416 1.16093177E-08
  1 417 1.16686602E-08
  1 418 1.13096698E-08
  1 419 1.12553063E-08
  1 420 1.17564744E-08
  1 421 1.20194335E-08
  1 422 1.14328561E-08
  1 423 1.05437880E-08
  1 424 1.01420362E-08
  1 425 1.00223348E-08
  1 426 9.51202952E-09
  1 427 8.80304861E-09
  1 428 8.74657027E-09
  1 429 9.42451538E-09
  1 430 9.94326131E-09
  1 431 9.83491724E-09
  1 432 9.71860618E-09
  1 433 1.01450551E-08
  1 434 1.06426385E-08
  1 435 1.06033782E-08
  1 436 1.04574397E-08
  1 437 1.10673591E-08
  1 438 1.23244273E-08
  1 439 1.33185967E-08
  1 440 1.37904399E-08
  1 441 1.44107876E-08
  1 442 1.54651599E-08
  1 443 1.62545335E-08
  1 444 1.62734925E-08
  1 445 1.61443497E-08
  1 446 1.66703404E-08
  1 447 1.75767663E-08
  1 448 1.80472108E-08
  1 449 1.81082754E-08
  1 450 1.84962168E-08
  1 451 1.92727391E-08
  1 452 1.96164541E-08
  1 453 1.91931180E-08
  1 454 1.87741178E-08
  1 455 1.90268646E-08
  1 456 1.95069700E-08
  1 457 1.95264673E-08
  1 458 1.93686163E-08
  1 459 1.97553807E-08
  1 460 2.05036817E-08
  1 461 2.07216041E-08
  1 462 2.02595028E-08
  1 463 1.99615912E-08
  1 464 2.02881455E-08
  1 465 2.06396192E-08
  1 466 2.04917074E-08
  1 467 2.03484440E-08
  1 468 2.08557979E-08
  1 469 2.16057352E-08
  1 470 2.17205335E-08
  1 471 2.12664361E-08
  1 472 2.11123300E-08
  1 473 2.14852861E-08
  1 474 2.16738750E-08
  1 475 2.13377244E-08
  1 476 2.11255921E-08
  1 477 2.15120450E-08
  1 478 2.18552704E-08
  1 479 2.13374830E-08
  1 480 2.02426396E-08
  1 481 1.94412987E-08
  1 482 1.89932279E-08
  1 483 1.82438619E-08
  1 484 1.71874792E-08
  1 485 1.66791180E-08
  1 486 1.70639786E-08
  1 487 1.75470284E-08
  1 488 1.74091418E-08
  1 489 1.70533584E-08
  1 490 1.71714681E-08
  1 491 1.75242619E-08
  1 492 1.74439046E-08
  1 493 1.71584250E-08
  1 494 1.75875271E-08
  1 495 1.88710570E-08
  1 496 2.00929048E-08
  1 497 2.06690097E-08
  1 498 2.10753921E-08
  1 499 2.17642485E-08
  1 500 2.22262435E-08
  1 501 1.29807596E-08
  1 502 1.31509558E-08
  1 503 1.25796441E-08
  1 504 1.20344269E-08
  1 505 1.21903431E-08
  1 506 1.26004470E-08
  1 507 1.25463683E-08
  1 508 1.22792426E-08
  1 509 1.25247038E-08
  1 510 1.31330293E-08
  1 511 1.32374184E-08
  1 512 1.26920976E-08
  1 513 1.23427968E-08
  1 514 1.26509566E-08
  1 515 1.29891656E-08
  1 516 1.27669887E-08
  1 517 1.24235171E-08
  1 518 1.25835800E-08
  1 519 1.28579094E-08
  1 520 1.24000673E-08
  1 521 1.13194917E-08
  1 522 1.05564275E-08
  1 523 1.04215068E-08
  1 524 1.02545172E-08
  1 525 9.71926933E-09
  1 526 9.45553482E-09
  1 527 9.94576354E-09
  1 528 1.05611119E-08
  1 529 1.04823345E-08
  1 530 9.99068651E-09
  1 531 9.97220631E-09
  1 532 1.04991870E-08
  1 533 1.08839596E-08
  1 534 1.10382225E-08
  1 535 1.17250545E-08
  1 536 1.32160646E-08
  1 537 1.46522644E-08
  1 538 1.52569074E-08
  1 539 1.54108922E-08
  1 540 1.58396639E-08
  1 541 1.63639095E-08
  1 542 1.63554168E-08
  1 543 1.60560038E-08
  1 544 1.64007229E-08
  1 545 1.75523146E-08
  1 546 1.86031580E-08
  1 547 1.89618894E-08
  1 548 1.91140548E-08
  1 549 1.95535743E-08
  1 550 1.98119299E-08
  1 551 1.93005317E-08
  1 552 1.85087739E-08
  1 553 1.84315759E-08
  1 554 1.91057081E-08
  1 555 1.96727628E-08
  1 556 1.98157619E-08
  1 557 2.01248586E-08
  1 558 2.08386886E-08
  1 559 2.12177159E-08
  1 560 2.07078922E-08
  1 561 1.99365039E-08
  1 562 1.98100128E-08
  1 563 2.01894296E-08
  1 564 2.03248584E-08
  1 565 2.02326289E-08
  1 566 2.06273636E-08
  1 567 2.15514098E-08
  1 568 2.21157181E-08
  1 569 2.18699170E-08
  1 570 2.15043229E-08
  1 571 2.16904463E-08
  1 572 2.20157927E-08
  1 573 2.17825376E-08
  1 574 2.12471931E-08
  1 575 2.11504986E-08
  1 576 2.13576940E-08
  1 577 2.09869621E-08
  1 578 1.98626825E-08
  1 579 1.88422202E-08
  1 580 1.84603357E-08
  1 581 1.81806075E-08
  1 582 1.74780429E-08
  1 583 1.68389983E-08
  1 584 1.69335804E-08
  1 585 1.73901559E-08
  1 586 1.73204685E-08
  1 587 1.67578562E-08
  1 588 1.65920059E-08
  1 589 1.71239956E-08
  1 590 1.76857498E-08
  1 591 1.79103947E-08
  1 592 1.84048880E-08
  1 593 1.96284943E-08
  1 594 2.09063588E-08
  1 595 2.13276227E-08
  1 596 2.10784627E-08
  1 597 2.10120902E-08
  1 598 2.12420727E-08
  1 599 2.11593397E-08
  1 600 2.07729054E-08
  1 601 1.31297478E-08
  1 602 1.21984678E-08
  1 603 1.20107118E-08
  1 604 1.26087793E-08
  1 605 1.31260365E-08
  1 606 1.32298579E-08
  1 607 1.35198613E-08
  1 608 1.42727207E-08
  1 609 1.47728263E-08
  1 610 1.44415718E-08
  1 611 1.38481409E-08
  1 612 1.38379927E-08
  1 613 1.42098523E-08
  1 614 1.41434202E-08
  1 615 1.36050582E-08
  1 616 1.33248610E-08
  1 617 1.34274611E-08
  1 618 1.31259696E-08
  1 619 1.20560839E-08
  1 620 1.09821125E-08
  1 621 1.06418689E-08
  1 622 1.06568186E-08
  1 623 1.03144484E-08
  1 624 9.83926019E-09
  1 625 9.96825740E-09
  1 626 1.05919056E-08
  1 627 1.08457264E-08
  1 628 1.05464562E-08
  1 629 1.05332324E-08
  1 630 1.13122390E-08
  1 631 1.22797067E-08
  1 632 1.27968554E-08
  1 633 1.32336219E-08
  1 634 1.41910505E-08
  1 635 1.52786143E-08
  1 636 1.56140922E-08
  1 637 1.52593439E-08
  1 638 1.51688294E-08
  1 639 1.57264414E-08
  1 640 1.63166999E-08
  1 641 1.65754921E-08
  1 642 1.70936056E-08
  1 643 1.83258908E-08
  1 644 1.95952275E-08
  1 645 1.99729426E-08
  1 646 1.96281510E-08
  1 647 1.94236063E-08
  1 648 1.94955512E-08
  1 649 1.92325390E-08
  1 650 1.86121119E-08
  1 651 1.84979270E-08
  1 652 1.92943355E-08
  1 653 2.02193364E-08
  1 654 2.04615136E-08
  1 655 2.03133772E-08
  1 656 2.04410974E-08
  1 657 2.06330811E-08
  1 658 2.02163418E-08
  1 659 1.94073923E-08
  1 660 1.92077957E-08
  1 661 1.99241420E-08
  1 662 2.07627404E-08
  1 663 2.11507235E-08
  1 664 2.15336428E-08
  1 665 2.23475389E-08
  1 666 2.30175042E-08
  1 667 2.27798878E-08
  1 668 2.19612052E-08
  1 669 2.15140640E-08
  1 670 2.15560300E-08
  1 671 2.13462676E-08
  1 672 2.06769740E-08
  1 673 2.02605757E-08
  1 674 2.04539652E-08
  1 675 2.05441107E-08
  1 676 1.98707600E-08
  1 677 1.89048817E-08
  1 678 1.84542515E-08
  1 679 1.83508546E-08
  1 680 1.78424945E-08
  1 681 1.69827881E-08
  1 682 1.66103903E-08
  1 683 1.69442353E-08
  1 684 1.72113190E-08
  1 685 1.69620713E-08
  1 686 1.68326123E-08
  1 687 1.74506353E-08
  1 688 1.83519543E-08
  1 689 1.87499874E-08
  1 690 1.88275100E-08
  1 691 1.93379465E-08
  1 692 2.02185151E-08
  1 693 2.06233910E-08
  1 694 2.03500955E-08
  1 695 2.02292922E-08
  1 696 2.08013691E-08
  1 697 2.15159825E-08
  1 698 2.17796101E-08
  1 699 2.20105090E-08
  1 700 2.28685207E-08
  1 701 1.27544238E-08
  1 702 1.36818545E-08
  1 703 1.47787216E-08
  1 704 1.52119440E-08
  1 705 1.52486883E-08
  1 706 1.55472178E-08
  1 707 1.58867765E-08
  1 708 1.55524667E-08
  1 709 1.46965174E-08
  1 710 1.42768616E-08
  1 711 1.45942507E-08
  1 712 1.48661996E-08
  1 713 1.45384783E-08
  1 714 1.41049404E-08
  1 715 1.40883033E-08
  1 716 1.40020223E-08
  1 717 1.31319620E-08
  1 718 1.18214628E-08
  1 719 1.10387440E-08
  1 720 1.09184581E-08
  1 721 1.07165968E-08
  1 722 1.02061965E-08
  1 723 1.00986058E-08
  1 724 1.07772063E-08
  1 725 1.15467659E-08
  1 726 1.17245687E-08
  1 727 1.17326579E-08
  1 728 1.23299498E-08
  1 729 1.32936289E-08
  1 730 1.37933895E-08
  1 731 1.38015400E-08
  1 732 1.41170246E-08
  1 733 1.49709729E-08
  1 734 1.56207365E-08
  1 735 1.56415274E-08
  1 736 1.57014244E-08
  1 737 1.64746974E-08
  1 738 1.75283849E-08
  1 739 1.80627848E-08
  1 740 1.82216440E-08
  1 741 1.87342676E-08
  1 742 1.95352163E-08
  1 743 1.97736982E-08
  1 744 1.92385228E-08
  1 745 1.87763059E-08
  1 746 1.89747576E-08
  1 747 1.93266875E-08
  1 748 1.92490805E-08
  1 749 1.91554694E-08
  1 750 1.97141669E-08
  1 751 2.05737168E-08
  1 752 2.07875011E-08
  1 753 2.02776660E-08
  1 754 1.98932760E-08
  1 755 1.99996644E-08
  1 756 2.00106913E-08
  1 757 1.96157502E-08
  1 758 1.95208670E-08
  1 759 2.03564819E-08
  1 760 2.15758253E-08
  1 761 2.22306184E-08
  1 762 2.23410319E-08
  1 763 2.25914688E-08
  1 764 2.29599384E-08
  1 765 2.26929039E-08
  1 766 2.16847687E-08
  1 767 2.08615876E-08
  1 768 2.08372977E-08
  1 769 2.10603450E-08
  1 770 2.08460503E-08
  1 771 2.04987835E-08
  1 772 2.06242207E-08
  1 773 2.08756644E-08
  1 774 2.03655432E-08
  1 775 1.91059433E-08
  1 776 1.80414006E-08
  1 777 1.76038911E-08
  1 778 1.72130966E-08
  1 779 1.65040368E-08
  1 780 1.61086571E-08
  1 781 1.66116198E-08
  1 782 1.74711899E-08
  1 783 1.77928586E-08
  1 784 1.76877106E-08
  1 785 1.79438867E-08
  1 786 1.86110382E-08
  1 787 1.89304811E-08
  1 788 1.87077157E-08
  1 789 1.87344820E-08
  1 790 1.94974309E-08
  1 791 2.03630126E-08
  1 792 2.06335686E-08
  1 793 2.06807309E-08
  1 794 2.12391124E-08
  1 795 2.20946548E-08
  1 796 2.24279338E-08
  1 797 2.22209120E-08
  1 798 2.23024324E-08
  1 799 2.29402460E-08
  1 800 2.33859866E-08
  1 801 1.59760426E-08
  1 802 1.64500995E-08
  1 803 1.61670825E-08
  1 804 1.59380258E-08
  1 805 1.61187679E-08
  1 806 1.61117420E-08
  1 807 1.55768349E-08
  1 808 1.51972613E-08
  1 809 1.56093545E-08
  1 810 1.62832231E-08
  1 811 1.62748777E-08
  1 812 1.56123698E-08
  1 813 1.50242993E-08
  1 814 1.45635740E-08
  1 815 1.35440921E-08
  1 816 1.19060479E-08
  1 817 1.06216430E-08
  1 818 1.03594509E-08
  1 819 1.06018217E-08
  1 820 1.06558238E-08
  1 821 1.07981847E-08
  1 822 1.16181492E-08
  1 823 1.27531846E-08
  1 824 1.32692808E-08
  1 825 1.31044109E-08
  1 826 1.31348143E-08
  1 827 1.37406917E-08
  1 828 1.42846752E-08
  1 829 1.43359016E-08
  1 830 1.44881460E-08
  1 831 1.53433693E-08
  1 832 1.64107678E-08
  1 833 1.68427030E-08
  1 834 1.67896362E-08
  1 835 1.70865192E-08
  1 836 1.78223462E-08
  1 837 1.82349714E-08
  1 838 1.80840576E-08
  1 839 1.81172531E-08
  1 840 1.88092684E-08
  1 841 1.95321103E-08
  1 842 1.95919474E-08
  1 843 1.93758243E-08
  1 844 1.96600425E-08
  1 845 2.02723903E-08
  1 846 2.03951064E-08
  1 847 1.99749248E-08
  1 848 1.98107945E-08
  1 849 2.01681560E-08
  1 850 2.03089691E-08
  1 851 1.97655948E-08
  1 852 1.91943135E-08
  1 853 1.93498340E-08
  1 854 1.99209688E-08
  1 855 2.01849824E-08
  1 856 2.03115460E-08
  1 857 2.10434089E-08
  1 858 2.22911969E-08
  1 859 2.30771760E-08
  1 860 2.29808594E-08
  1 861 2.26775537E-08
  1 862 2.27046065E-08
  1 863 2.25949710E-08
  1 864 2.18432679E-08
  1 865 2.09884876E-08
  1 866 2.08788987E-08
  1 867 2.13113141E-08
  1 868 2.13453456E-08
  1 869 2.07703670E-08
  1 870 2.02702311E-08
  1 871 2.00851580E-08
  1 872 1.95377440E-08
  1 873 1.82715109E-08
  1 874 1.70628192E-08
  1 875 1.67517205E-08
  1 876 1.70380196E-08
  1 877 1.71271833E-08
  1 878 1.70755464E-08
  1 879 1.75373307E-08
  1 880 1.84045195E-08
  1 881 1.87559879E-08
  1 882 1.82839061E-08
  1 883 1.78001870E-08
  1 884 1.79543539E-08
  1 885 1.83140820E-08
  1 886 1.83100874E-08
  1 887 1.83509382E-08
  1 888 1.91489467E-08
  1 889 2.04076941E-08
  1 890 2.11576436E-08
  1 891 2.12262288E-08
  1 892 2.13853136E-08
  1 893 2.19654012E-08
  1 894 2.23204474E-08
  1 895 2.20351243E-08
  1 896 2.17582443E-08
  1 897 2.21855935E-08
  1 898 2.29045963E-08
  1 899 2.30760647E-08
  1 900 2.28031697E-08
  1 901 1.70350627E-08
  1 902 1.65559289E-08
  1 903 1.66549128E-08
  1 904 1.70447964E-08
  1 905 1.69993441E-08
  1 906 1.66643397E-08
  1 907 1.67746429E-08
  1 908 1.72585078E-08
  1 909 1.71622049E-08
  1 910 1.60966376E-08
  1 911 1.48048006E-08
  1 912 1.39325429E-08
  1 913 1.31185917E-08
  1 914 1.19187887E-08
  1 915 1.08942809E-08
  1 916 1.09006592E-08
  1 917 1.17218947E-08
  1 918 1.23652700E-08
  1 919 1.25439189E-08
  1 920 1.28838244E-08
  1 921 1.35970249E-08
  1 922 1.39760409E-08
  1 923 1.36124884E-08
  1 924 1.32318372E-08
  1 925 1.36490342E-08
  1 926 1.45518997E-08
  1 927 1.51267577E-08
  1 928 1.54203898E-08
  1 929 1.61185463E-08
  1 930 1.71764144E-08
  1 931 1.77221826E-08
  1 932 1.74612217E-08
  1 933 1.72019029E-08
  1 934 1.75873545E-08
  1 935 1.81581744E-08
  1 936 1.82886664E-08
  1 937 1.83365283E-08
  1 938 1.90089038E-08
  1 939 2.00421380E-08
  1 940 2.04992095E-08
  1 941 2.02285400E-08
  1 942 2.00299933E-08
  1 943 2.02682618E-08
  1 944 2.03079999E-08
  1 945 1.97134653E-08
  1 946 1.91199542E-08
  1 947 1.92508863E-08
  1 948 1.97474842E-08
  1 949 1.98156254E-08
  1 950 1.95905343E-08
  1 951 1.98922648E-08
  1 952 2.07990348E-08
  1 953 2.14839992E-08
  1 954 2.15889725E-08
  1 955 2.17740404E-08
  1 956 2.25022805E-08
  1 957 2.31554218E-08
  1 958 2.30173025E-08
  1 959 2.24606852E-08
  1 960 2.23159989E-08
  1 961 2.25022523E-08
  1 962 2.22487640E-08
  1 963 2.14981105E-08
  1 964 2.10556480E-08
  1 965 2.12119230E-08
  1 966 2.12022421E-08
  1 967 2.04522914E-08
  1 968 1.95084905E-08
  1 969 1.90908968E-08
  1 970 1.89102835E-08
  1 971 1.82717386E-08
  1 972 1.74008617E-08
  1 973 1.71759556E-08
  1 974 1.76842138E-08
  1 975 1.80536006E-08
  1 976 1.78524265E-08
  1 977 1.76885224E-08
  1 978 1.80298460E-08
  1 979 1.83183105E-08
  1 980 1.79285362E-08
  1 981 1.73303958E-08
  1 982 1.74330404E-08
  1 983 1.81834191E-08
  1 984 1.87655041E-08
  1 985 1.90168105E-08
  1 986 1.96214912E-08
  1 987 2.07713693E-08
  1 988 2.16402858E-08
  1 989 2.16331960E-08
  1 990 2.13185668E-08
  1 991 2.14684364E-08
  1 992 2.18401597E-08
  1 993 2.17466160E-08
  1 994 2.13803880E-08
  1 995 2.15700737E-08
  1 996 2.23584918E-08
  1 997 2.28454135E-08
  1 998 2.25999465E-08
  1 999 2.22735017E-08
  1 1000 2.24122491E-08
  1 1001 1.74404197E-08
  1 1002 1.80842049E-08
  1 1003 1.84101455E-08
  1 1004 1.80226328E-08
  1 1005 1.75587712E-08
  1 1006 1.75028707E-08
  1 1007 1.72854475E-08
  1 1008 1.62424842E-08
  1 1009 1.48110845E-08
  1 1010 1.39121114E-08
  1 1011 1.35550599E-08
  1 1012 1.30152743E-08
  1 1013 1.22317758E-08
  1 1014 1.19908555E-08
  1 1015 1.25651354E-08
  1 1016 1.31541984E-08
  1 1017 1.31225893E-08
  1 1018 1.29605325E-08
  1 1019 1.33623726E-08
  1 1020 1.40243932E-08
  1 1021 1.42170125E-08
  1 1022 1.41193331E-08
  1 1023 1.45842013E-08
  1 1024 1.56969113E-08
  1 1025 1.65785475E-08
  1 1026 1.67789754E-08
  1 1027 1.69051074E-08
  1 1028 1.74556328E-08
  1 1029 1.79055484E-08
  1 1030 1.76358288E-08
  1 1031 1.71100459E-08
  1 1032 1.72463460E-08
  1 1033 1.80078685E-08
  1 1034 1.85730328E-08
  1 1035 1.87556114E-08
  1 1036 1.92322960E-08
  1 1037 2.02137834E-08
  1 1038 2.08895908E-08
  1 1039 2.06589526E-08
  1 1040 2.00867134E-08
  1 1041 1.99672836E-08
  1 1042 2.00892955E-08
  1 1043 1.97773922E-08
  1 1044 1.92260175E-08
  1 1045 1.92868367E-08
  1 1046 2.00444586E-08
  1 1047 2.06233132E-08
  1 1048 2.05861659E-08
  1 1049 2.05718546E-08
  1 1050 2.11222980E-08
  1 1051 2.17349361E-08
  1 1052 2.17629550E-08
  1 1053 2.15922492E-08
  1 1054 2.20361401E-08
  1 1055 2.29482482E-08
  1 1056 2.34138326E-08
  1 1057 2.32011169E-08
  1 1058 2.30185201E-08
  1 1059 2.31829607E-08
  1 1060 2.30230711E-08
  1 1061 2.20601216E-08
  1 1062 2.09331880E-08
  1 1063 2.04488530E-08
  1 1064 2.03395928E-08
  1 1065 1.98201022E-08
  1 1066 1.89683266E-08
  1 1067 1.85699466E-08
  1 1068 1.87205074E-08
  1 1069 1.86171190E-08
  1 1070 1.79239147E-08
  1 1071 1.73773418E-08
  1 1072 1.75783256E-08
  1 1073 1.80124241E-08
  1 1074 1.79482178E-08
  1 1075 1.76587283E-08
  1 1076 1.78798417E-08
  1 1077 1.84631412E-08
  1 1078 1.85704166E-08
  1 1079 1.81057182E-08
  1 1080 1.79366139E-08
  1 1081 1.85047539E-08
  1 1082 1.91668954E-08
  1 1083 1.93512518E-08
  1 1084 1.95171075E-08
  1 1085 2.02721768E-08
  1 1086 2.11918511E-08
  1 1087 2.14152401E-08
  1 1088 2.10457318E-08
  1 1089 2.09824412E-08
  1 1090 2.14645294E-08
  1 1091 2.17842714E-08
  1 1092 2.16040900E-08
  1 1093 2.15699654E-08
  1 1094 2.21492279E-08
  1 1095 2.27046902E-08
  1 1096 2.24453031E-08
  1 1097 2.16886188E-08
  1 1098 2.13206075E-08
  1 1099 2.13912713E-08
  1 1100 2.12206531E-08
  1 1101 1.92519920E-08
  1 1102 1.85947227E-08
  1 1103 1.75716486E-08
  1 1104 1.70427707E-08
  1 1105 1.69407870E-08
  1 1106 1.64278575E-08
  1 1107 1.53391669E-08
  1 1108 1.44608775E-08
  1 1109 1.41951004E-08
  1 1110 1.39219122E-08
  1 1111 1.31542422E-08
  1 1112 1.24858208E-08
  1 1113 1.26724939E-08
  1 1114 1.33867850E-08
  1 1115 1.37599519E-08
  1 1116 1.37847759E-08
  1 1117 1.42001311E-08
  1 1118 1.50950255E-08
  1 1119 1.56633394E-08
  1 1120 1.55509431E-08
  1 1121 1.54824705E-08
  1 1122 1.60686036E-08
  1 1123 1.68048434E-08
  1 1124 1.69510444E-08
  1 1125 1.67758313E-08
  1 1126 1.70475631E-08
  1 1127 1.76756506E-08
  1 1128 1.78632769E-08
  1 1129 1.75252067E-08
  1 1130 1.75291255E-08
  1 1131 1.83111845E-08
  1 1132 1.91923418E-08
  1 1133 1.95291910E-08
  1 1134 1.97148060E-08
  1 1135 2.03377886E-08
  1 1136 2.09949144E-08
  1 1137 2.08570562E-08
  1 1138 2.00675611E-08
  1 1139 1.95898923E-08
  1 1140 1.97374916E-08
  1 1141 1.98449990E-08
  1 1142 1.95731433E-08
  1 1143 1.95565730E-08
  1 1144 2.02694676E-08
  1 1145 2.10839411E-08
  1 1146 2.11974564E-08
  1 1147 2.09065660E-08
  1 1148 2.10870831E-08
  1 1149 2.17729224E-08
  1 1150 2.22267484E-08
  1 1151 2.23111254E-08
  1 1152 2.27424199E-08
  1 1153 2.37585006E-08
  1 1154 2.45014057E-08
  1 1155 2.42377304E-08
  1 1156 2.34129087E-08
  1 1157 2.28102074E-08
  1 1158 2.22928333E-08
  1 1159 2.12643583E-08
  1 1160 1.99851991E-08
  1 1161 1.93907602E-08
  1 1162 1.96382437E-08
  1 1163 1.98335004E-08
  1 1164 1.94252954E-08
  1 1165 1.89457814E-08
  1 1166 1.89183219E-08
  1 1167 1.88804824E-08
  1 1168 1.82272627E-08
  1 1169 1.74026718E-08
  1 1170 1.73266806E-08
  1 1171 1.79564232E-08
  1 1172 1.83866886E-08
  1 1173 1.83034265E-08
  1 1174 1.83378092E-08
  1 1175 1.87902907E-08
  1 1176 1.89936537E-08
  1 1177 1.84594642E-08
  1 1178 1.78438592E-08
  1 1179 1.80267511E-08
  1 1180 1.88019117E-08
  1 1181 1.93443610E-08
  1 1182 1.96079055E-08
  1 1183 2.02621101E-08
  1 1184 2.13297407E-08
  1 1185 2.19386632E-08
  1 1186 2.16843800E-08
  1 1187 2.13031433E-08
  1 1188 2.14906687E-08
  1 1189 2.18419171E-08
  1 1190 2.16649326E-08
  1 1191 2.12229076E-08
  1 1192 2.12602346E-08
  1 1193 2.16509042E-08
  1 1194 2.15390832E-08
  1 1195 2.07843114E-08
  1 1196 2.02618191E-08
  1 1197 2.04915233E-08
  1 1198 2.08984129E-08
  1 1199 2.09085336E-08
  1 1200 2.09500163E-08
  1 1201 1.76700563E-08
  1 1202 1.72460821E-08
  1 1203 1.74382069E-08
  1 1204 1.74521974E-08
  1 1205 1.66044611E-08
  1 1206 1.53876891E-08
  1 1207 1.46396678E-08
  1 1208 1.42556287E-08
  1 1209 1.36118647E-08
  1 1210 1.28933571E-08
  1 1211 1.29583582E-08
  1 1212 1.39069928E-08
  1 1213 1.47943386E-08
  1 1214 1.50230772E-08
  1 1215 1.51109431E-08
  1 1216 1.56072742E-08
  1 1217 1.60786143E-08
  1 1218 1.59140968E-08
  1 1219 1.55282315E-08
  1 1220 1.58233462E-08
  1 1221 1.67558996E-08
  1 1222 1.74172584E-08
  1 1223 1.74913455E-08
  1 1224 1.76370061E-08
  1 1225 1.82110864E-08
  1 1226 1.85863696E-08
  1 1227 1.82642205E-08
  1 1228 1.78578039E-08
  1 1229 1.82043010E-08
  1 1230 1.90572826E-08
  1 1231 1.95454623E-08
  1 1232 1.95943500E-08
  1 1233 1.99019938E-08
  1 1234 2.05720608E-08
  1 1235 2.08163268E-08
  1 1236 2.02833801E-08
  1 1237 1.97416300E-08
  1 1238 1.99099617E-08
  1 1239 2.03799474E-08
  1 1240 2.04180552E-08
  1 1241 2.02398092E-08
  1 1242 2.05782505E-08
  1 1243 2.13279384E-08
  1 1244 2.16447223E-08
  1 1245 2.13730266E-08
  1 1246 2.13630539E-08
  1 1247 2.21047782E-08
  1 1248 2.29652841E-08
  1 1249 2.32807927E-08
  1 1250 2.34012230E-08
  1 1251 2.39096424E-08
  1 1252 2.44096919E-08
  1 1253 2.40363435E-08
  1 1254 2.28815964E-08
  1 1255 2.19203488E-08
  1 1256 2.15411143E-08
  1 1257 2.11328177E-08
  1 1258 2.03482930E-08
  1 1259 1.98047996E-08
  1 1260 1.99908228E-08
  1 1261 2.02796244E-08
  1 1262 1.98125327E-08
  1 1263 1.88258712E-08
  1 1264 1.82153077E-08
  1 1265 1.81052859E-08
  1 1266 1.78396215E-08
  1 1267 1.73293652E-08
  1 1268 1.73554684E-08
  1 1269 1.82413019E-08
  1 1270 1.91578937E-08
  1 1271 1.92995190E-08
  1 1272 1.90031630E-08
  1 1273 1.89901916E-08
  1 1274 1.90989186E-08
  1 1275 1.86938706E-08
  1 1276 1.80019453E-08
  1 1277 1.79937459E-08
  1 1278 1.89141725E-08
  1 1279 1.99107009E-08
  1 1280 2.03798432E-08
  1 1281 2.07651669E-08
  1 1282 2.15218706E-08
  1 1283 2.21156181E-08
  1 1284 2.18398842E-08
  1 1285 2.10705411E-08
  1 1286 2.07752531E-08
  1 1287 2.10515505E-08
  1 1288 2.11249931E-08
  1 1289 2.07565459E-08