# File generated by Flopy version 3.5.0 on 03/06/2024 at 10:48:00.
BEGIN options
END options

BEGIN griddata
  icelltype
    CONSTANT  0
  k
    INTERNAL  FACTOR  1.0
    1.25541954E-06  8.23411308E-06  8.28476584E-06  7.27327404E-06  7.26668407E-06  5.91593550E-06  4.40252257E-06  4.92091163E-06  5.36523086E-06  5.88248669E-06  6.99657591E-06  8.60649301E-06  8.27027575E-06  5.58230715E-06  5.03603798E-06  4.76831477E-06  4.36657144E-06  4.53077850E-06  4.58511321E-06  4.47799680E-06
    3.64768813E-06  3.49521801E-06  3.60048549E-06  3.45397805E-06  3.52196299E-06  3.37607507E-06  3.77016604E-06  3.70423058E-06  3.31281364E-06  3.61051693E-06  3.46649918E-06  3.11052692E-06  2.69866128E-06  2.80113065E-06  3.37603928E-06  3.47283401E-06  4.13491630E-06  4.27367460E-06  3.71770566E-06  3.22721876E-06
    3.12156715E-06  4.10097478E-06  4.39497788E-06  5.09774178E-06  6.55520590E-06  7.41272469E-06  8.63974098E-06  8.87974555E-06  1.04526456E-05  8.83711564E-06  6.74061675E-06  7.42804896E-06  8.23890897E-06  1.06609197E-05  1.14255506E-05  1.12810861E-05  9.16387196E-06  5.75137369E-06  5.22103371E-06  4.52216513E-06
    3.98618562E-06  3.44045791E-06  2.87965331E-06  2.76010627E-06  2.41071259E-06  2.65048863E-06  2.80580999E-06  2.45479500E-06  2.30904040E-06  2.05333248E-06  2.15698251E-06  2.20732030E-06  2.40500602E-06  2.79880014E-06  2.60950196E-06  2.68420012E-06  2.82433453E-06  3.28475792E-06  3.28193536E-06  2.79354576E-06
    2.93056306E-06  2.59539931E-06  2.39273065E-06  2.44260136E-06  2.59170313E-06  2.66346464E-06  2.33672482E-06  2.79759926E-06  3.57039509E-06  4.04132330E-06  5.19247533E-06  6.25175962E-06  7.20172476E-06  5.70976943E-06  6.04505635E-06  8.51579329E-06  8.56017672E-06  9.08928274E-06  9.38613144E-06  9.96908680E-06
    6.11437837E-06  7.21737645E-06  7.80045969E-06  6.93909650E-06  7.62609418E-06  6.46701056E-06  4.65420835E-06  4.77373417E-06  5.09671443E-06  5.53880475E-06  6.14669601E-06  8.10918811E-06  8.95027432E-06  6.39499897E-06  5.52225522E-06  5.00820144E-06  4.47205925E-06  4.39343621E-06  4.51315060E-06  4.61683630E-06
    3.89596787E-06  3.70729935E-06  3.74032573E-06  3.60317559E-06  3.61521697E-06  3.33797921E-06  3.76374662E-06  3.80554139E-06  3.52385599E-06  3.81321210E-06  3.85280958E-06  3.65458116E-06  2.97474891E-06  2.87880401E-06  3.23565994E-06  3.34423433E-06  4.09466489E-06  4.57157720E-06  4.41269098E-06  3.57340443E-06
    3.12681435E-06  3.68601924E-06  3.86920109E-06  4.68024289E-06  6.00960332E-06  7.45936531E-06  8.99400028E-06  9.17355129E-06  1.13534158E-05  9.74161406E-06  7.37821475E-06  7.12403625E-06  7.34950570E-06  9.70676487E-06  1.09198620E-05  1.24400946E-05  1.05524581E-05  6.50241345E-06  5.45226137E-06  4.52946236E-06
    4.30419367E-06  3.82377865E-06  3.32872875E-06  3.14061102E-06  2.57444898E-06  2.74210941E-06  2.89907375E-06  2.71347885E-06  2.51401602E-06  2.22424620E-06  2.29638319E-06  2.21903639E-06  2.47059300E-06  2.90189937E-06  2.76801554E-06  2.75668937E-06  2.73404373E-06  3.33260791E-06  3.45379433E-06  2.98974531E-06
    3.04253841E-06  2.61397066E-06  2.33703011E-06  2.23050279E-06  2.43768943E-06  2.63733669E-06  2.30640825E-06  2.58539232E-06  3.05282784E-06  3.45172499E-06  4.09993709E-06  5.09743799E-06  6.72034261E-06  5.50215587E-06  5.70675331E-06  7.85923949E-06  8.74944733E-06  9.17735967E-06  8.76326860E-06  9.97127120E-06
    5.40171403E-06  6.48718231E-06  7.19420684E-06  6.34154087E-06  7.44592677E-06  6.80297275E-06  5.03267422E-06  4.74264702E-06  4.97824661E-06  5.40395263E-06  5.43000724E-06  7.14907112E-06  8.66718313E-06  6.90656321E-06  5.95298868E-06  5.29906366E-06  4.72698283E-06  4.33036136E-06  4.39666231E-06  4.51474745E-06
    3.93875297E-06  3.79097281E-06  3.79026975E-06  3.78327536E-06  3.78568662E-06  3.37882005E-06  3.72008895E-06  3.75201018E-06  3.58236030E-06  3.78876978E-06  4.04264682E-06  4.21382634E-06  3.38313152E-06  3.12493519E-06  3.22768442E-06  3.22152550E-06  3.79269697E-06  4.41892706E-06  4.90790079E-06  4.02327840E-06
    3.35962762E-06  3.56477428E-06  3.49762332E-06  4.16838654E-06  5.16942699E-06  6.96505550E-06  8.87647698E-06  9.46905160E-06  1.24755740E-05  1.11614427E-05  8.63144449E-06  7.24753625E-06  6.70266595E-06  8.30659592E-06  9.50935812E-06  1.28169257E-05  1.22827615E-05  8.06215867E-06  6.18364665E-06  4.67174378E-06
    4.39198857E-06  3.89195239E-06  3.66491181E-06  3.56225599E-06  2.87661145E-06  2.96334024E-06  3.04120863E-06  2.99818617E-06  2.68368370E-06  2.35523762E-06  2.41979917E-06  2.22667215E-06  2.50613010E-06  3.02619616E-06  3.05213609E-06  2.91438881E-06  2.63680416E-06  3.16894316E-06  3.36187905E-06  3.10160541E-06
    3.19413399E-06  2.79225732E-06  2.43304348E-06  2.12412770E-06  2.26790841E-06  2.50184196E-06  2.26214926E-06  2.44763870E-06  2.76242928E-06  3.17423793E-06  3.44182971E-06  4.17599303E-06  5.92254155E-06  5.10312005E-06  5.17945932E-06  6.82413927E-06  8.75629108E-06  9.72223781E-06  8.93335729E-06  1.04157812E-05
    5.04932236E-06  6.16296570E-06  6.94289399E-06  5.99615439E-06  7.08599066E-06  6.86343771E-06  5.41222879E-06  4.72170729E-06  4.93370674E-06  5.52744626E-06  5.13680028E-06  6.42937415E-06  8.03168474E-06  7.09092571E-06  6.19889912E-06  5.55257088E-06  5.14797010E-06  4.47266420E-06  4.42925405E-06  4.50194928E-06
    3.94986210E-06  3.79582339E-06  3.71086595E-06  3.86742399E-06  3.94314793E-06  3.50588764E-06  3.76809817E-06  3.74566279E-06  3.63654471E-06  3.64090653E-06  3.95730694E-06  4.49701343E-06  3.78376016E-06  3.49934461E-06  3.40145669E-06  3.27430058E-06  3.55118278E-06  4.02842623E-06  4.91012547E-06  4.27033606E-06
    3.63173607E-06  3.63647563E-06  3.38526860E-06  3.85536065E-06  4.47965358E-06  6.21838806E-06  8.10258231E-06  9.17053098E-06  1.28944362E-05  1.26186660E-05  1.06543329E-05  8.16021079E-06  6.80904400E-06  7.29595413E-06  7.75625288E-06  1.15771267E-05  1.29767425E-05  1.01285088E-05  7.63516362E-06  5.36161074E-06
    4.67669133E-06  3.81676059E-06  3.74512293E-06  3.76644725E-06  3.15507670E-06  3.23334536E-06  3.26470629E-06  3.42539252E-06  2.95234441E-06  2.51455860E-06  2.53616654E-06  2.20915989E-06  2.43062951E-06  3.00512178E-06  3.41013863E-06  3.26458158E-06  2.69731174E-06  3.03128128E-06  3.10869701E-06  2.99933121E-06
    3.14231573E-06  2.98155786E-06  2.66473555E-06  2.15126200E-06  2.19050807E-06  2.36780166E-06  2.20341810E-06  2.29871493E-06  2.51023733E-06  2.98624125E-06  3.05606650E-06  3.59132560E-06  5.25026750E-06  4.83374682E-06  4.71691740E-06  5.57975978E-06  7.95315753E-06  9.74424659E-06  9.37903644E-06  1.15158752E-05
    4.71357005E-06  5.90284366E-06  6.91860932E-06  6.07503822E-06  7.02584498E-06  7.04259878E-06  5.93148583E-06  4.73061976E-06  4.84303338E-06  5.65625066E-06  5.17424377E-06  6.17807028E-06  7.69269046E-06  7.38758260E-06  6.44203112E-06  5.78835448E-06  5.63400023E-06  4.83345188E-06  4.71169432E-06  4.76624205E-06
    4.18487995E-06  3.93965617E-06  3.66945584E-06  3.87425888E-06  3.98507489E-06  3.62571767E-06  3.83075137E-06  3.81543422E-06  3.82547069E-06  3.58947079E-06  3.81121926E-06  4.44732100E-06  3.98263793E-06  3.81591532E-06  3.63358175E-06  3.50498055E-06  3.52831440E-06  3.75202332E-06  4.67240572E-06  4.22695836E-06
    3.74727141E-06  3.65634014E-06  3.38820537E-06  3.72139733E-06  4.09541276E-06  5.69913794E-06  7.26952733E-06  8.47860948E-06  1.21219391E-05  1.30288119E-05  1.26307347E-05  9.66965009E-06  7.87878063E-06  7.27512327E-06  6.68246323E-06  9.70891413E-06  1.19678687E-05  1.15366891E-05  9.31831462E-06  6.68165795E-06
    5.51216804E-06  3.95489711E-06  3.78560945E-06  3.75916354E-06  3.28646374E-06  3.36940612E-06  3.41954699E-06  3.92700274E-06  3.39750476E-06  2.83635236E-06  2.76705552E-06  2.27252043E-06  2.30683400E-06  2.74329610E-06  3.56435045E-06  3.69268535E-06  2.96104875E-06  3.10572199E-06  2.97025715E-06  2.84459251E-06
    2.88450092E-06  2.98958798E-06  2.90180960E-06  2.26859981E-06  2.21451393E-06  2.31605746E-06  2.20327938E-06  2.19687874E-06  2.29539801E-06  2.77272990E-06  2.74212939E-06  3.13992809E-06  4.65343535E-06  4.81139441E-06  4.63775459E-06  4.71931267E-06  6.76785936E-06  8.74355927E-06  9.15405951E-06  1.22875294E-05
    4.37379571E-06  5.46356544E-06  6.68456421E-06  6.29514898E-06  7.22377244E-06  7.59691488E-06  6.96115531E-06  5.03338445E-06  4.81870143E-06  5.60915511E-06  5.23203104E-06  6.11986691E-06  7.63633038E-06  8.09551461E-06  7.03287872E-06  6.23049442E-06  6.18391651E-06  5.32411350E-06  5.19692083E-06  5.26900389E-06
    4.71511944E-06  4.37214027E-06  3.85697607E-06  3.99656143E-06  4.00998511E-06  3.71292055E-06  3.79112140E-06  3.79934440E-06  4.05468379E-06  3.69360623E-06  3.81957331E-06  4.34795915E-06  4.02144989E-06  3.93333569E-06  3.72304822E-06  3.74018601E-06  3.63921138E-06  3.68288422E-06  4.52601052E-06  4.15003951E-06
    3.75684917E-06  3.53306093E-06  3.33880151E-06  3.57232355E-06  3.83674418E-06  5.43074677E-06  6.79444357E-06  8.04864819E-06  1.10203062E-05  1.23533552E-05  1.33541973E-05  1.07963467E-05  9.50357072E-06  8.21281641E-06  6.65449601E-06  8.58108093E-06  1.04912905E-05  1.17428099E-05  1.02802524E-05  8.16353466E-06
    6.85346256E-06  4.46514792E-06  4.02826959E-06  3.79718674E-06  3.38584248E-06  3.35333556E-06  3.38692664E-06  4.22064166E-06  3.86461214E-06  3.34209614E-06  3.19586682E-06  2.55776197E-06  2.31345359E-06  2.42571899E-06  3.36067971E-06  3.86205215E-06  3.28280610E-06  3.35435504E-06  3.05952994E-06  2.84520911E-06
    2.66065435E-06  2.84855673E-06  3.00605976E-06  2.40135509E-06  2.28301573E-06  2.32000178E-06  2.28436951E-06  2.20021453E-06  2.19787674E-06  2.61719271E-06  2.49382726E-06  2.71907518E-06  3.90373173E-06  4.73624069E-06  4.89959097E-06  4.46957942E-06  6.02312349E-06  7.50632766E-06  8.16187645E-06  1.15516616E-05
    4.24623098E-06  5.03818631E-06  6.16534020E-06  6.29411955E-06  7.20332648E-06  8.18480972E-06  8.64135585E-06  5.93392269E-06  5.13974206E-06  5.60503263E-06  5.20771076E-06  5.89399316E-06  7.38317895E-06  8.89450047E-06  8.02504073E-06  7.04022843E-06  6.97467596E-06  5.95703527E-06  5.78255641E-06  5.84141340E-06
    5.39141258E-06  5.00076234E-06  4.28690383E-06  4.35004779E-06  4.20662379E-06  3.90064152E-06  3.73440859E-06  3.63388676E-06  4.06404474E-06  3.78026959E-06  3.95720373E-06  4.38860272E-06  4.11617384E-06  3.97214187E-06  3.65829287E-06  3.79273911E-06  3.67131937E-06  3.68587919E-06  4.47400039E-06  4.21268925E-06
    3.86049377E-06  3.42841316E-06  3.26583835E-06  3.33945970E-06  3.50794536E-06  5.08593190E-06  6.46086383E-06  8.02614928E-06  1.04641932E-05  1.17766204E-05  1.30941291E-05  1.08472537E-05  1.06430793E-05  9.42083703E-06  7.41086810E-06  8.48184270E-06  9.78572722E-06  1.17045818E-05  1.04770794E-05  9.21058017E-06
    8.20395670E-06  5.21966705E-06  4.44986133E-06  3.98939445E-06  3.63857397E-06  3.36966982E-06  3.29387809E-06  4.20212089E-06  4.08816656E-06  3.81891589E-06  3.70483929E-06  3.11068239E-06  2.58537959E-06  2.28570781E-06  3.04523052E-06  3.67519661E-06  3.42549292E-06  3.53511879E-06  3.26745138E-06  3.03996612E-06
    2.60571476E-06  2.74615767E-06  3.01926166E-06  2.52156687E-06  2.34620338E-06  2.31052461E-06  2.38258452E-06  2.27944244E-06  2.22995014E-06  2.61952673E-06  2.42013181E-06  2.44355928E-06  3.12208148E-06  4.26133995E-06  5.04889943E-06  4.59751407E-06  5.93676663E-06  6.87691843E-06  7.29234955E-06  9.80620257E-06
    4.42189039E-06  4.90729720E-06  5.74751690E-06  6.15996883E-06  6.76013239E-06  8.14517628E-06  1.03072299E-05  7.49237753E-06  6.02689757E-06  5.93872050E-06  5.32362117E-06  5.54606010E-06  6.68434245E-06  9.01929577E-06  8.90728453E-06  8.03370142E-06  7.99976388E-06  6.80046509E-06  6.44807672E-06  6.34283777E-06
    6.00774222E-06  5.54618364E-06  4.74768278E-06  4.78552243E-06  4.56445103E-06  4.29342620E-06  3.83975054E-06  3.50058791E-06  3.82891816E-06  3.64395737E-06  3.97744806E-06  4.44013010E-06  4.33653984E-06  4.10561924E-06  3.61824908E-06  3.71972269E-06  3.53653606E-06  3.58473018E-06  4.31210960E-06  4.29835291E-06
    4.09253006E-06  3.48517748E-06  3.32366842E-06  3.17885942E-06  3.16396965E-06  4.50953769E-06  5.84692405E-06  7.87685255E-06  1.02407662E-05  1.19710601E-05  1.31619171E-05  1.05283412E-05  1.08620892E-05  1.00127564E-05  8.28121322E-06  8.83077203E-06  9.87903645E-06  1.23225412E-05  1.08021874E-05  1.00075051E-05
    9.25838786E-06  6.00519019E-06  4.82805507E-06  4.15978559E-06  4.00754087E-06  3.52813955E-06  3.31711364E-06  4.13272681E-06  4.11132058E-06  4.05650142E-06  3.98415514E-06  3.74760358E-06  3.12064201E-06  2.39814921E-06  2.89851797E-06  3.43873381E-06  3.40345751E-06  3.47752335E-06  3.36977998E-06  3.29393122E-06
    2.67219525E-06  2.75136237E-06  3.05843781E-06  2.68399364E-06  2.43072431E-06  2.28349600E-06  2.41747927E-06  2.33625127E-06  2.31152941E-06  2.74588453E-06  2.56275798E-06  2.42831647E-06  2.62978877E-06  3.57678145E-06  4.68570565E-06  4.62860408E-06  6.10597907E-06  6.88099120E-06  7.12867666E-06  8.40446261E-06
    4.70714818E-06  5.05328537E-06  5.69530900E-06  6.31966783E-06  6.34549354E-06  7.50630108E-06  1.08406059E-05  9.16537632E-06  7.50168722E-06  6.72732547E-06  5.82881772E-06  5.40591446E-06  5.87216553E-06  8.27018441E-06  8.99935346E-06  8.72448048E-06  8.89202397E-06  7.75972129E-06  7.23295640E-06  6.74427627E-06
    6.49884636E-06  5.87837726E-06  5.00919514E-06  4.98934628E-06  4.80969801E-06  4.77878977E-06  4.13736959E-06  3.56627811E-06  3.62022751E-06  3.36426127E-06  3.72306100E-06  4.22711382E-06  4.48513012E-06  4.30177140E-06  3.69518526E-06  3.69849639E-06  3.36913704E-06  3.38733401E-06  3.95617884E-06  4.19061171E-06
    4.24518446E-06  3.62556763E-06  3.55901437E-06  3.23450067E-06  2.99738481E-06  3.95628406E-06  5.01455591E-06  7.10257586E-06  9.43753674E-06  1.22932558E-05  1.39703967E-05  1.08181586E-05  1.09507669E-05  1.00520357E-05  8.78785483E-06  8.86620218E-06  9.99733359E-06  1.33154961E-05  1.16922455E-05  1.11582889E-05
    1.03935119E-05  6.95755977E-06  5.11824206E-06  4.11960504E-06  4.21036019E-06  3.68669801E-06  3.43554649E-06  4.20671579E-06  4.23621789E-06  4.21298322E-06  3.95862565E-06  4.12793100E-06  3.69316365E-06  2.68871995E-06  2.96208307E-06  3.38446006E-06  3.46650669E-06  3.33977701E-06  3.30891620E-06  3.43246640E-06
    2.73995075E-06  2.78369345E-06  3.11194294E-06  2.92678642E-06  2.59968594E-06  2.30998136E-06  2.41636167E-06  2.31964764E-06  2.33300745E-06  2.82905179E-06  2.83453207E-06  2.66560494E-06  2.51586337E-06  3.12697543E-06  4.06736434E-06  4.32201468E-06  5.93574031E-06  6.94371732E-06  7.48543178E-06  7.77414943E-06
    4.76306445E-06  5.13500301E-06  5.83484182E-06  6.99110296E-06  6.48359017E-06  7.04364418E-06  1.03298672E-05  1.01529420E-05  9.14476729E-06  7.85822855E-06  6.86259072E-06  5.73422190E-06  5.38809572E-06  7.31446128E-06  8.39400870E-06  8.84161597E-06  9.25721647E-06  8.56183788E-06  8.10957665E-06  7.15014137E-06
    6.97209843E-06  6.16960474E-06  5.14482633E-06  4.90093534E-06  4.71197634E-06  5.03888434E-06  4.46856226E-06  3.83511902E-06  3.62708573E-06  3.18083686E-06  3.37403606E-06  3.75650934E-06  4.31666268E-06  4.32938414E-06  3.79653705E-06  3.76234403E-06  3.29120738E-06  3.23353754E-06  3.57535988E-06  3.90940615E-06
    4.14118577E-06  3.63356507E-06  3.80073551E-06  3.45880547E-06  3.09169245E-06  3.69210471E-06  4.41309832E-06  6.06366453E-06  7.82280949E-06  1.14904485E-05  1.44294902E-05  1.17252764E-05  1.15946690E-05  1.03349374E-05  9.28291774E-06  8.55957014E-06  9.58464149E-06  1.36243008E-05  1.25925336E-05  1.26084610E-05
    1.19251582E-05  8.54483875E-06  5.66086500E-06  4.01210441E-06  4.12097119E-06  3.61141160E-06  3.43730142E-06  4.25402688E-06  4.56894485E-06  4.59771122E-06  3.93892756E-06  4.22654057E-06  4.02498978E-06  2.98400609E-06  3.08014856E-06  3.44880689E-06  3.74269886E-06  3.35779642E-06  3.26849711E-06  3.48062870E-06
    2.76641181E-06  2.75390253E-06  3.06426159E-06  3.16842656E-06  2.85524782E-06  2.44011992E-06  2.48223760E-06  2.30697830E-06  2.29324288E-06  2.73773206E-06  3.02864971E-06  3.02732457E-06  2.66807607E-06  3.04341333E-06  3.66681576E-06  3.94931253E-06  5.35859210E-06  6.55503171E-06  7.71607079E-06  7.46524742E-06
    4.56771639E-06  4.86613742E-06  5.69361383E-06  7.79322816E-06  7.26148902E-06  7.31705411E-06  9.93170747E-06  1.06096728E-05  1.04843809E-05  8.98046877E-06  8.31601199E-06  6.59235593E-06  5.42726732E-06  6.75033013E-06  7.79223571E-06  8.75441042E-06  9.23079604E-06  9.05801041E-06  8.85903027E-06  7.62115166E-06
    7.55965345E-06  6.65521951E-06  5.46129771E-06  4.83578858E-06  4.45507065E-06  4.91543567E-06  4.58879419E-06  4.16481609E-06  3.83316121E-06  3.21008286E-06  3.16691107E-06  3.31609053E-06  3.92400924E-06  4.06713085E-06  3.75526499E-06  3.77461171E-06  3.27082107E-06  3.17204701E-06  3.32495425E-06  3.68336000E-06
    3.92176541E-06  3.47084124E-06  3.80913077E-06  3.61499802E-06  3.34086289E-06  3.71849280E-06  4.26441009E-06  5.43976151E-06  6.27224309E-06  9.55688958E-06  1.32262118E-05  1.22321992E-05  1.24003396E-05  1.11388868E-05  1.03876650E-05  8.55735516E-06  9.04773833E-06  1.29623472E-05  1.27553344E-05  1.34686130E-05
    1.32198356E-05  1.09058348E-05  6.87370152E-06  4.18555903E-06  4.01591936E-06  3.37393413E-06  3.20315686E-06  3.94720462E-06  4.80322939E-06  5.23661810E-06  4.18535845E-06  4.36879051E-06  4.18238825E-06  3.20203663E-06  3.09624446E-06  3.41804476E-06  4.07740827E-06  3.55793378E-06  3.39656777E-06  3.61537388E-06
    2.85651502E-06  2.70714357E-06  2.89659902E-06  3.25576567E-06  3.08456622E-06  2.64325477E-06  2.66039244E-06  2.40020191E-06  2.30780117E-06  2.57012370E-06  3.01761248E-06  3.29240335E-06  2.90841196E-06  3.19093987E-06  3.58758146E-06  3.81958250E-06  4.83190515E-06  5.91336781E-06  7.46471698E-06  6.96139667E-06
    4.47820601E-06  4.46376821E-06  5.13452218E-06  7.91017263E-06  8.13989959E-06  8.26515894E-06  1.02546644E-05  1.13881470E-05  1.18272691E-05  1.00471984E-05  9.92825667E-06  7.81394060E-06  5.93831212E-06  6.64369011E-06  7.55667761E-06  8.97407678E-06  9.38824366E-06  9.59141606E-06  9.43609024E-06  8.05474316E-06
    8.13041368E-06  7.31278515E-06  6.16188952E-06  5.10595100E-06  4.41308055E-06  4.70764203E-06  4.48496274E-06  4.35684822E-06  4.06817598E-06  3.41306714E-06  3.15360578E-06  3.07035858E-06  3.58875043E-06  3.70844849E-06  3.56645194E-06  3.62404137E-06  3.19519960E-06  3.10624950E-06  3.16023371E-06  3.62037481E-06
    3.83164909E-06  3.35187493E-06  3.64117096E-06  3.53771402E-06  3.49488894E-06  3.79547916E-06  4.43502972E-06  5.43433610E-06  5.45605627E-06  7.75412191E-06  1.09079955E-05  1.15404189E-05  1.22873473E-05  1.17627063E-05  1.20375671E-05  9.23597373E-06  9.05329382E-06  1.22474508E-05  1.24952180E-05  1.33284624E-05
    1.32252586E-05  1.30910825E-05  8.71540006E-06  4.86854862E-06  4.21629611E-06  3.29585276E-06  2.94371532E-06  3.33850711E-06  4.52997628E-06  5.67441797E-06  4.62548982E-06  4.74056718E-06  4.43605582E-06  3.47442705E-06  3.07672229E-06  3.23980901E-06  4.19577208E-06  3.75323401E-06  3.62820166E-06  3.88469413E-06
    3.14544922E-06  2.78684721E-06  2.74926839E-06  3.18976120E-06  3.15769360E-06  2.80831549E-06  2.86972376E-06  2.61194820E-06  2.46786407E-06  2.50628573E-06  2.93315671E-06  3.36606579E-06  3.08308199E-06  3.35950826E-06  3.64826257E-06  3.93467629E-06  4.61691603E-06  5.49935025E-06  7.10137067E-06  6.34716318E-06
    4.74563733E-06  4.33350691E-06  4.59460067E-06  7.22478703E-06  8.34558454E-06  9.21462544E-06  1.09026063E-05  1.27572025E-05  1.37708583E-05  1.15774493E-05  1.18837823E-05  9.35535678E-06  6.82083924E-06  6.77908193E-06  7.50875908E-06  9.46226799E-06  1.00292293E-05  1.06986677E-05  1.03347477E-05  8.59348418E-06
    8.49486195E-06  7.80962610E-06  7.07221694E-06  5.74368513E-06  4.76048506E-06  4.77939602E-06  4.45062865E-06  4.43490702E-06  4.19559422E-06  3.66409438E-06  3.24400613E-06  2.98013210E-06  3.40744650E-06  3.45908236E-06  3.39060199E-06  3.40905832E-06  3.05571379E-06  2.94378662E-06  2.93107645E-06  3.57336592E-06
    3.89648902E-06  3.44001274E-06  3.57950148E-06  3.39581903E-06  3.45794938E-06  3.66047883E-06  4.55383871E-06  5.76180310E-06  5.33445572E-06  6.77592459E-06  8.94998696E-06  1.02831158E-05  1.10848356E-05  1.13692302E-05  1.32113706E-05  1.02225922E-05  9.62789705E-06  1.21034581E-05  1.27584904E-05  1.31233336E-05
    1.22467410E-05  1.38176792E-05  1.03120981E-05  5.92078465E-06  4.77049792E-06  3.56870656E-06  2.94696580E-06  2.83240788E-06  3.89163404E-06  5.44363691E-06  4.88539973E-06  5.13389970E-06  4.82293117E-06  3.95480505E-06  3.19964724E-06  3.10840973E-06  4.10595205E-06  3.80085059E-06  3.77039824E-06  4.08783772E-06
    3.62177960E-06  3.09651598E-06  2.76224959E-06  3.15499380E-06  3.13040749E-06  2.86802814E-06  2.96048166E-06  2.82527001E-06  2.75013230E-06  2.60513131E-06  2.95901766E-06  3.39229363E-06  3.19262314E-06  3.44172454E-06  3.65063683E-06  4.07566370E-06  4.57153345E-06  5.39625086E-06  7.03408125E-06  6.05828934E-06
    5.22727443E-06  4.59996810E-06  4.44679606E-06  6.48476792E-06  7.92772142E-06  9.53870537E-06  1.10535662E-05  1.39639655E-05  1.60228408E-05  1.38905590E-05  1.47473726E-05  1.16631413E-05  8.28414161E-06  7.12376214E-06  7.41073628E-06  9.63926632E-06  1.07192018E-05  1.23906074E-05  1.20242304E-05  9.70171696E-06
    8.90201814E-06  8.01782882E-06  7.74013683E-06  6.43727654E-06  5.36945940E-06  5.17120129E-06  4.68396076E-06  4.61148633E-06  4.30990744E-06  3.91571482E-06  3.34522941E-06  2.94003921E-06  3.28649264E-06  3.31417533E-06  3.30490036E-06  3.27287678E-06  2.97090024E-06  2.76307943E-06  2.62101334E-06  3.31916072E-06
    3.87055405E-06  3.66457917E-06  3.74234501E-06  3.44464968E-06  3.44065797E-06  3.38365345E-06  4.35809348E-06  5.89260422E-06  5.51687831E-06  6.41532223E-06  7.79969478E-06  9.40910562E-06  9.79953904E-06  1.02989309E-05  1.31447535E-05  1.07519872E-05  1.01073425E-05  1.20142831E-05  1.36990012E-05  1.38304646E-05
    1.16662278E-05  1.35016675E-05  1.09245892E-05  6.82876701E-06  5.35338085E-06  4.10423416E-06  3.31765798E-06  2.66252935E-06  3.36627846E-06  4.80273629E-06  4.75817729E-06  5.17579428E-06  5.03876634E-06  4.56208755E-06  3.50361341E-06  3.17852036E-06  4.07526380E-06  3.84083663E-06  3.81488430E-06  4.03595871E-06
    4.04050765E-06  3.56901054E-06  2.97463770E-06  3.30414630E-06  3.18437934E-06  2.91452983E-06  2.92789241E-06  2.90488821E-06  2.99787430E-06  2.78555251E-06  3.12379919E-06  3.51287146E-06  3.35033960E-06  3.51480127E-06  3.59726295E-06  4.08458137E-06  4.43113608E-06  5.29994054E-06  7.09492931E-06  6.21457273E-06
    5.44179845E-06  5.02413626E-06  4.68378435E-06  6.15366693E-06  7.55351310E-06  9.48620676E-06  1.06048813E-05  1.41896678E-05  1.72954753E-05  1.62692294E-05  1.83780767E-05  1.52450564E-05  1.09640821E-05  8.02627417E-06  7.44452998E-06  9.25389337E-06  1.06563612E-05  1.37067695E-05  1.41572385E-05  1.16402833E-05
    9.74218561E-06  8.20240489E-06  8.01455754E-06  6.81131658E-06  5.86825629E-06  5.58660794E-06  5.06560102E-06  4.92143293E-06  4.52683268E-06  4.25427158E-06  3.48813905E-06  2.91401535E-06  3.12878807E-06  3.15848372E-06  3.22423829E-06  3.19677140E-06  3.00097262E-06  2.69608145E-06  2.37529433E-06  2.90721668E-06
    3.53630415E-06  3.74411743E-06  3.94168210E-06  3.71508071E-06  3.65144529E-06  3.23475237E-06  4.02629457E-06  5.60967774E-06  5.61937827E-06  6.18448222E-06  7.03850792E-06  8.96352163E-06  9.04885500E-06  9.46529734E-06  1.24799983E-05  1.07680398E-05  1.00008429E-05  1.10786145E-05  1.41543973E-05  1.51235603E-05
    1.21378969E-05  1.35665090E-05  1.11626362E-05  7.42361793E-06  5.58338456E-06  4.55816103E-06  3.91487873E-06  2.79647267E-06  3.14858922E-06  4.26812844E-06  4.50565665E-06  4.89202023E-06  4.86598135E-06  4.95942741E-06  3.80911809E-06  3.37969010E-06  4.19992966E-06  4.08694432E-06  4.00892339E-06  3.90590353E-06
    4.21820278E-06  3.95016663E-06  3.28011341E-06  3.62416598E-06  3.42690919E-06  3.09460904E-06  2.92527916E-06  2.90130331E-06  3.09185436E-06  2.90692075E-06  3.29926596E-06  3.68706527E-06  3.60923036E-06  3.68205676E-06  3.62377213E-06  4.06542335E-06  4.18980743E-06  4.97863087E-06  6.76504525E-06  6.42236607E-06
    5.15820895E-06  5.19147655E-06  5.01682770E-06  6.07661236E-06  7.47426855E-06  9.59485180E-06  1.02308981E-05  1.38521195E-05  1.71191315E-05  1.74927869E-05  2.11599111E-05  1.95346695E-05  1.54790210E-05  1.00599138E-05  8.12827461E-06  8.89626992E-06  9.86031838E-06  1.35638598E-05  1.54106942E-05  1.39899952E-05
    1.10859651E-05  8.60604507E-06  8.13201870E-06  6.84485413E-06  6.00502177E-06  5.67574985E-06  5.28475490E-06  5.13114948E-06  4.72822951E-06  4.69261321E-06  3.75630686E-06  2.95953932E-06  2.96519965E-06  2.95315017E-06  3.04346582E-06  3.04378472E-06  3.05548497E-06  2.75583897E-06  2.28118469E-06  2.57195963E-06
    3.05903065E-06  3.50938138E-06  3.84858244E-06  3.95648676E-06  4.04845158E-06  3.31801000E-06  3.84327753E-06  5.21163948E-06  5.62152822E-06  5.88434248E-06  6.27072257E-06  8.38452016E-06  8.52002545E-06  9.04400546E-06  1.20345254E-05  1.10180313E-05  9.80912418E-06  9.51069186E-06  1.29707681E-05  1.53318832E-05
    1.29759461E-05  1.43712751E-05  1.19737577E-05  8.25376087E-06  5.63018083E-06  4.71705319E-06  4.41256588E-06  3.06304909E-06  3.13533606E-06  3.94284298E-06  4.39058107E-06  4.63330098E-06  4.54411525E-06  5.01259870E-06  3.91482813E-06  3.48757079E-06  4.24457242E-06  4.48555934E-06  4.53216050E-06  4.03035541E-06
    4.37447932E-06  4.15011450E-06  3.50938634E-06  3.90893970E-06  3.78377066E-06  3.47503367E-06  3.06308641E-06  2.96635158E-06  3.12524339E-06  2.94632846E-06  3.36103539E-06  3.75322248E-06  3.87082943E-06  3.91159091E-06  3.78227924E-06  4.18763067E-06  4.07166888E-06  4.62597224E-06  5.98825856E-06  6.17571515E-06
    4.74175328E-06  5.03594492E-06  5.16525867E-06  5.88778643E-06  7.37693207E-06  9.77724096E-06  1.02751956E-05  1.38909087E-05  1.66879882E-05  1.77639215E-05  2.18130481E-05  2.25450349E-05  2.11103579E-05  1.35902308E-05  1.00735189E-05  9.37826627E-06  9.27347262E-06  1.24386023E-05  1.49886520E-05  1.56599723E-05
    1.25352864E-05  9.30271392E-06  8.36464450E-06  6.79309425E-06  5.92840184E-06  5.46187689E-06  5.21756182E-06  5.04179175E-06  4.68219421E-06  5.02505367E-06  4.13117396E-06  3.14072683E-06  2.88920897E-06  2.77757298E-06  2.80713426E-06  2.76906256E-06  2.97025060E-06  2.82586660E-06  2.30920387E-06  2.40519810E-06
    2.70828965E-06  3.16216120E-06  3.44422084E-06  3.87232551E-06  4.32755268E-06  3.51553352E-06  3.82858535E-06  4.94119017E-06  5.75190528E-06  5.74285586E-06  5.60872293E-06  7.46753711E-06  7.69611483E-06  8.48195478E-06  1.15305024E-05  1.18547916E-05  1.03497781E-05  8.39136162E-06  1.09218945E-05  1.35573707E-05
    1.27822704E-05  1.47387613E-05  1.32446651E-05  9.85013475E-06  6.00015969E-06  4.83715269E-06  4.69352589E-06  3.31781463E-06  3.15324900E-06  3.64413222E-06  4.33215312E-06  4.51896372E-06  4.36990255E-06  5.00339627E-06  3.92041202E-06  3.43150102E-06  3.96375528E-06  4.64599595E-06  5.18196902E-06  4.51218179E-06
    4.85745906E-06  4.43924263E-06  3.70953785E-06  4.00654281E-06  4.03194941E-06  3.95132626E-06  3.32783947E-06  3.16278325E-06  3.23611951E-06  3.01365478E-06  3.36690382E-06  3.68110997E-06  3.98562158E-06  4.03519145E-06  3.95966370E-06  4.43065272E-06  4.18459615E-06  4.54812381E-06  5.30287360E-06  5.58653659E-06
    4.55888912E-06  4.89580403E-06  5.21696559E-06  5.54417598E-06  6.97251668E-06  9.45265516E-06  1.02796237E-05  1.43170695E-05  1.69887790E-05  1.85403146E-05  2.16049179E-05  2.35243857E-05  2.54925557E-05  1.78060980E-05  1.35139470E-05  1.11887890E-05  9.72646434E-06  1.17396278E-05  1.39215921E-05  1.62128517E-05
    1.35147519E-05  1.01322158E-05  8.79473009E-06  6.89763411E-06  5.93787737E-06  5.25959203E-06  5.09906550E-06  4.81146582E-06  4.39365015E-06  4.99741482E-06  4.43115320E-06  3.44345178E-06  2.94739760E-06  2.71820278E-06  2.64326931E-06  2.49947632E-06  2.72786650E-06  2.76164898E-06  2.36416618E-06  2.34655920E-06
    2.53196460E-06  2.94204096E-06  3.03361814E-06  3.52681652E-06  4.25271603E-06  3.62727456E-06  3.79254798E-06  4.67678441E-06  6.01877085E-06  5.97641569E-06  5.37933204E-06  6.69859475E-06  6.72035961E-06  7.45631351E-06  1.01458883E-05  1.24716198E-05  1.17362796E-05  8.29116921E-06  9.51981655E-06  1.11905384E-05
    1.13280336E-05  1.34372846E-05  1.36863416E-05  1.18953602E-05  6.91258377E-06  5.27897471E-06  5.01355548E-06  3.63139014E-06  3.19131443E-06  3.29147857E-06  4.09858579E-06  4.33374137E-06  4.29817052E-06  5.12943754E-06  4.10089444E-06  3.43597154E-06  3.53128403E-06  4.33211406E-06  5.38855041E-06  5.04997161E-06
    5.70959759E-06  5.10029620E-06  4.15235481E-06  4.09460912E-06  4.11878121E-06  4.31851535E-06  3.59968870E-06  3.43081929E-06  3.42816152E-06  3.17555466E-06  3.44327160E-06  3.63165477E-06  4.00025708E-06  3.97534580E-06  3.98169909E-06  4.55221134E-06  4.37841019E-06  4.76714084E-06  5.07014409E-06  5.20212198E-06
    4.59085845E-06  4.97490344E-06  5.44643402E-06  5.35763305E-06  6.51534327E-06  8.55880822E-06  9.64615485E-06  1.40794574E-05  1.74341928E-05  2.04116981E-05  2.24293899E-05  2.43973287E-05  2.80320438E-05  2.11951047E-05  1.75479303E-05  1.40618872E-05  1.14571947E-05  1.21846952E-05  1.35592843E-05  1.66271334E-05
    1.42166299E-05  1.09597868E-05  9.27617389E-06  7.19949983E-06  6.14783915E-06  5.25944532E-06  5.20067216E-06  4.77345353E-06  4.16179828E-06  4.70344333E-06  4.49132328E-06  3.72466500E-06  3.08142869E-06  2.79767459E-06  2.62141074E-06  2.34968163E-06  2.49140137E-06  2.58168550E-06  2.35985267E-06  2.29078958E-06