# File generated by Flopy version 3.5.0 on 03/06/2024 at 10:48:00.
BEGIN griddata
  strt
    INTERNAL  FACTOR  1.0
        15.00000000      15.00000000      15.00000000      15.00000000      15.00000000      15.00000000      15.00000000      15.00000000      15.00000000      15.00000000      15.00000000      15.00000000      15.00000000      15.00000000      15.00000000      15.00000000      15.00000000      15.00000000      15.00000000      15.00000000
        15.00000000      15.00000000      15.00000000      15.00000000      15.00000000      15.00000000      15.00000000      15.00000000      15.00000000      15.00000000      15.00000000      15.00000000      15.00000000      15.00000000      15.00000000      15.00000000      15.00000000      15.00000000      15.00000000      15.00000000
        15.00000000      15.00000000      15.00000000      15.00000000      15.00000000      15.00000000      15.00000000      15.00000000      15.00000000      15.00000000      15.00000000      15.00000000      15.00000000      15.00000000      15.00000000      15.00000000      15.00000000      15.00000000      15.00000000      15.00000000
        15.00000000      15.00000000      15.00000000      15.00000000      15.00000000      15.00000000      15.00000000      15.00000000      15.00000000      15.00000000      15.00000000      15.00000000      15.00000000      15.00000000      15.00000000      15.00000000      15.00000000      15.00000000      15.00000000      15.00000000
        15.00000000      15.00000000      15.00000000      15.00000000      15.00000000      15.00000000      15.00000000      15.00000000      15.00000000      15.00000000      15.00000000      15.00000000      15.00000000      15.00000000      15.00000000      15.00000000      15.00000000      15.00000000      15.00000000      15.00000000
        15.38261803      15.36646261      15.36122446      15.35430261      15.34302339      15.33547556      15.32435752      15.30984648      15.28904839      15.25677743      15.22464703      15.20721059      15.19739172      15.18427312      15.16843012      15.15422258      15.14015091      15.12521480      15.11328479      15.10252643
        15.09297373      15.08681319      15.08253739      15.07729806      15.07539984      15.07420670      15.07051113      15.06451979      15.05945277      15.05640203      15.05521394      15.05312651      15.05136421      15.04948362      15.04776538      15.04671843      15.04620053      15.04796433      15.05189599      15.05457290
        15.05501713      15.05515346      15.05596821      15.05880622      15.06114139      15.06317675      15.06383188      15.06308220      15.06155095      15.06110075      15.06120763      15.06295828      15.06462898      15.06377933      15.06088814      15.05733159      15.05362047      15.05093772      15.04905364      15.04804124
        15.04719179      15.04577656      15.04548760      15.04620071      15.04781075      15.04978689      15.05159725      15.05287027      15.05441901      15.05515056      15.05559084      15.05609039      15.05697696      15.05718473      15.05619796      15.05498679      15.05571788      15.05692003      15.05816503      15.05968883
        15.06115838      15.06361425      15.06645643      15.06833258      15.06952360      15.07037310      15.07040865      15.06936550      15.06714631      15.06727639      15.06893614      15.06929817      15.06802549      15.06685672      15.06627355      15.06815762      15.07109543      15.07351664      15.07527012      15.07670294
        15.72014859      15.71313950      15.70305236      15.69174747      15.67439834      15.65746700      15.63140005      15.60170710      15.56935038      15.51828973      15.45579503      15.40966180      15.38092259      15.35479923      15.32710668      15.30009023      15.27315507      15.24566336      15.22343636      15.20380835
        15.18467775      15.17167241      15.16405832      15.15483356      15.14728588      15.14142754      15.13572103      15.12871848      15.12005059      15.11156281      15.10639678      15.10266924      15.09936336      15.09451604      15.08940005      15.08752225      15.08726504      15.08899122      15.09338610      15.09886445
        15.10317189      15.10561576      15.10559885      15.10699547      15.10925431      15.11213950      15.11314601      15.11203146      15.11018251      15.10978121      15.10935983      15.11034147      15.11228527      15.11165669      15.10696724      15.09909241      15.09069327      15.08416533      15.08021085      15.07817177
        15.07740937      15.07624540      15.07599897      15.07584738      15.07633591      15.07826723      15.08127011      15.08334652      15.08499333      15.08618167      15.08811190      15.08996136      15.09120439      15.09188851      15.09166386      15.09031729      15.08955526      15.08954564      15.09102294      15.09445971
        15.09757383      15.10047609      15.10386942      15.10785504      15.11118273      15.11278699      15.11289256      15.11334645      15.11260358      15.11228360      15.11268189      15.11348863      15.11449140      15.11503601      15.11384689      15.11497585      15.11966656      15.12544157      15.12942229      15.13069811
        16.04042021      16.04416055      16.04100009      16.02775593      16.00122094      15.97358812      15.93535930      15.88935395      15.84529656      15.78330258      15.70052031      15.62496458      15.57077477      15.52551577      15.48351546      15.44569197      15.40948375      15.37029078      15.33622079      15.30847495
        15.28286388      15.26432905      15.25256623      15.23937560      15.22735055      15.21756069      15.20711142      15.19535608      15.18332710      15.17264818      15.16401343      15.15497066      15.14738610      15.14198639      15.13703204      15.13423970      15.13174478      15.13219122      15.13717707      15.14401462
        15.14869189      15.15166977      15.15325757      15.15568160      15.15682234      15.15781184      15.15946010      15.16093382      15.16014275      15.15845481      15.15574495      15.15490615      15.15666688      15.15568769      15.14990395      15.14025775      15.13032640      15.12171639      15.11452401      15.11002161
        15.10944212      15.10873405      15.10738474      15.10504514      15.10414409      15.10641102      15.11057026      15.11384704      15.11680258      15.11959128      15.12224083      15.12344388      15.12339327      15.12413941      15.12500996      15.12400642      15.12214737      15.12134376      15.12276136      15.12677326
        15.13029475      15.13354264      15.13722159      15.14154935      15.14514102      15.14767775      15.14967938      15.15258880      15.15396800      15.15443838      15.15525607      15.15656378      15.15805799      15.15943641      15.15924275      15.16024181      15.16409195      15.16915906      15.17383292      15.17630923
        16.34413396      16.34925158      16.35649985      16.35367248      16.32767814      16.29009604      16.23919073      16.17755283      16.12268550      16.05345809      15.95661813      15.85457771      15.77171290      15.70307102      15.64187686      15.59050490      15.54569206      15.49873248      15.45515346      15.41938872
        15.38568641      15.36014217      15.34487243      15.32978640      15.31335591      15.29820256      15.28299650      15.26810582      15.25277377      15.23876870      15.22730491      15.21547062      15.20421233      15.19514175      15.18674938      15.18283512      15.18054384      15.17971779      15.18192008      15.18727345
        15.19285284      15.19775120      15.19996699      15.20153257      15.20255442      15.20374129      15.20541748      15.20657705      15.20645614      15.20635605      15.20457593      15.20163375      15.20053934      15.19891492      15.19485373      15.18496479      15.17162663      15.15922354      15.14961471      15.14329014
        15.14105797      15.13943803      15.13892513      15.13844626      15.13755737      15.13790499      15.14123030      15.14634075      15.15142070      15.15435445      15.15539693      15.15607658      15.15616845      15.15657186      15.15657706      15.15577668      15.15492978      15.15414603      15.15304643      15.15449209
        15.15785311      15.16259972      15.16699428      15.17120382      15.17573185      15.18093849      15.18560741      15.18974388      15.19223766      15.19395476      15.19571758      15.19652384      15.19700629      15.19881811      15.20095048      15.20320403      15.20609329      15.20951538      15.21375152      15.21603161
        16.65084881      16.64964632      16.65298831      16.65556313      16.64244057      16.61115395      16.55394618      16.46919905      16.39587888      16.32213414      16.22054174      16.09698419      15.98392290      15.89043530      15.80717955      15.73705852      15.67923080      15.62388340      15.57331486      15.53136110
        15.49045208      15.45614990      15.43702965      15.42283894      15.40615642      15.38767379      15.36754187      15.34859877      15.32882884      15.30968459      15.29424405      15.28016876      15.26617746      15.25362621      15.24111935      15.23489681      15.23258193      15.23075025      15.23009553      15.23265501
        15.23667828      15.24088660      15.24325231      15.24553854      15.24790701      15.24929282      15.25061931      15.25168222      15.25214797      15.25250268      15.25104567      15.24753409      15.24545733      15.24286898      15.23851279      15.22898837      15.21522840      15.20088464      15.18771225      15.17714118
        15.17260586      15.17156868      15.17236215      15.17282211      15.17217980      15.17260703      15.17572323      15.18014594      15.18444663      15.18816102      15.19069720      15.19171617      15.18947602      15.18758029      15.18756589      15.18767702      15.18613417      15.18346734      15.18095977      15.18191452
        15.18490278      15.18909511      15.19412440      15.20036033      15.20664810      15.21170623      15.21558081      15.22048185      15.22600817      15.23006990      15.23261480      15.23419057      15.23641456      15.23919075      15.24073935      15.24130409      15.24320966      15.24590214      15.24884394      15.24969749
        16.95601774      16.94637828      16.94479166      16.94691920      16.93687371      16.91229034      16.86464928      16.77401082      16.67560213      16.58427146      16.47697872      16.34524792      16.20807071      16.08772612      15.97839638      15.88533021      15.81143165      15.74435125      15.68407784      15.63665438
        15.59417458      15.55533841      15.53010146      15.51411204      15.49940360      15.48319055      15.46113209      15.43536890      15.40836481      15.38524034      15.36805776      15.35170032      15.33419772      15.31906228      15.30316697      15.29107750      15.28362264      15.27905973      15.27778270      15.27914966
        15.28121628      15.28415924      15.28743437      15.29108803      15.29391016      15.29384262      15.29383378      15.29450456      15.29501992      15.29551082      15.29551177      15.29398943      15.29279053      15.28940727      15.28347580      15.27268616      15.25743961      15.24095442      15.22498359      15.21160794
        15.20554408      15.20507051      15.20703667      15.20965976      15.21102776      15.21153965      15.21256309      15.21485107      15.21826116      15.22215669      15.22457505      15.22571635      15.22317289      15.21971340      15.21754460      15.21630136      15.21492146      15.21341689      15.21098279      15.21011383
        15.21140475      15.21525038      15.22099249      15.22735572      15.23352392      15.23935494      15.24486738      15.25055718      15.25649963      15.26177684      15.26678960      15.27008208      15.27149039      15.27215286      15.27335887      15.27500278      15.27727405      15.27925272      15.28216041      15.28416005
        17.27796375      17.25528341      17.23801570      17.23349459      17.22297329      17.19974423      17.15743084      17.07038980      16.95801638      16.84850715      16.72945254      16.58781948      16.43289911      16.29000265      16.15716851      16.03769204      15.94220400      15.85960842      15.78824615      15.73485239
        15.69234527      15.65279296      15.62426480      15.60681389      15.59239799      15.57711570      15.55674548      15.53175391      15.50027249      15.46691596      15.44182934      15.42362654      15.40598669      15.38798424      15.36613214      15.34797052      15.33813306      15.33225198      15.32880730      15.32788957
        15.32934759      15.33174718      15.33243904      15.33211341      15.33399310      15.33569746      15.33681435      15.33668570      15.33665577      15.33847137      15.34083254      15.34039940      15.33812679      15.33380444      15.32784046      15.31664232      15.29873556      15.27944026      15.26271951      15.24933593
        15.24202278      15.24027605      15.24200225      15.24620108      15.24895478      15.24925372      15.24887195      15.25043219      15.25358961      15.25691465      15.25858369      15.26037139      15.25898868      15.25424153      15.24856288      15.24454445      15.24272989      15.24196809      15.23979826      15.23816849
        15.23890753      15.24229081      15.24744461      15.25314867      15.25975174      15.26658260      15.27238570      15.27708628      15.28259780      15.28879560      15.29524130      15.29991605      15.30273740      15.30436766      15.30565744      15.30659699      15.30801594      15.30973303      15.31246000      15.31402516
        17.60370276      17.57885774      17.54356029      17.51988887      17.49817211      17.47303674      17.43498756      17.35600821      17.23749311      17.11298771      16.98289969      16.83162731      16.65909604      16.49383093      16.34012268      16.19571580      16.07646972      15.97443609      15.88637562      15.82369291
        15.78330462      15.74908721      15.72066721      15.70085636      15.68537049      15.67076862      15.65186950      15.62772177      15.59555116      15.55588420      15.52148631      15.49635548      15.47588594      15.45796927      15.43580503      15.41230843      15.39548950      15.38459776      15.37922854      15.37729751
        15.37722042      15.37779477      15.37748556      15.37625692      15.37730502      15.37808765      15.37901374      15.37965737      15.37974999      15.38022397      15.38142603      15.38183369      15.38167079      15.37881814      15.37253074      15.36093645      15.34219607      15.32002709      15.29864011      15.28128889
        15.27424091      15.27462129      15.27710374      15.28093252      15.28442847      15.28773714      15.28988244      15.29086486      15.29144203      15.29302684      15.29393028      15.29468047      15.29183932      15.28559165      15.27942856      15.27491371      15.27195902      15.27048557      15.26972555      15.26966183
        15.26969495      15.26985921      15.27246483      15.27733490      15.28375760      15.29004995      15.29584161      15.30145498      15.30803477      15.31423450      15.32011688      15.32548224      15.33032210      15.33328247      15.33388842      15.33347253      15.33435136      15.33623058      15.33849367      15.33978728
        17.91508740      17.88893051      17.85098236      17.81913489      17.78111857      17.73971510      17.69852415      17.63080566      17.51646514      17.37711618      17.23037139      17.07099360      16.88830016      16.70285596      16.52921547      16.36297425      16.22031028      16.09612216      15.98282992      15.90230428
        15.86589340      15.84242353      15.81880789      15.79700555      15.77876988      15.76365786      15.74590300      15.72291787      15.69184741      15.64956140      15.60759498      15.57295716      15.54497571      15.52424066      15.50355778      15.47901508      15.45703846      15.44018052      15.43142188      15.42791908
        15.42648232      15.42625120      15.42541533      15.42216783      15.42024686      15.41908628      15.41956864      15.42083199      15.42118899      15.42137200      15.42273979      15.42429244      15.42519004      15.42373338      15.41879196      15.40782373      15.38579183      15.35577838      15.32494106      15.30073613
        15.29984723      15.30640632      15.31223293      15.31820705      15.32356673      15.32769614      15.32973920      15.33061979      15.33119605      15.33152089      15.32946479      15.32813520      15.32675321      15.32253426      15.31554075      15.30774627      15.30253550      15.30024280      15.29868134      15.29680614
        15.29569156      15.29574273      15.29829115      15.30188415      15.30684193      15.31335344      15.32065925      15.32656547      15.33133389      15.33586556      15.34161928      15.34759263      15.35249995      15.35579229      15.35789755      15.35899075      15.35919491      15.35892209      15.35963581      15.36138063
        18.22706527      18.19938657      18.15270427      18.11389784      18.07046458      18.01653763      17.95947916      17.88641131      17.77641830      17.63765385      17.48200979      17.31217285      17.11868320      16.91875058      16.73036754      16.54465924      16.37620242      16.22580515      16.07919013      15.96854061
        15.94129403      15.93310376      15.91960076      15.90037822      15.87946638      15.85950950      15.83865497      15.81577689      15.78789832      15.74465529      15.69432611      15.65083588      15.61689401      15.59179132      15.56901321      15.54393808      15.52141094      15.50085984      15.48559461      15.47685385
        15.47356795      15.47420766      15.47414161      15.46967196      15.46544583      15.46341219      15.46323850      15.46377870      15.46379646      15.46431652      15.46561315      15.46658133      15.46657079      15.46554708      15.46203936      15.45293423      15.42974357      15.39088478      15.34226745      15.29617453
        15.31594204      15.33654175      15.34938894      15.35785324      15.36355902      15.36755225      15.37023580      15.37191069      15.37291073      15.37302663      15.36997675      15.36661391      15.36389371      15.35882886      15.35130654      15.34195494      15.33414624      15.32901334      15.32574247      15.32371650
        15.32339805      15.32320243      15.32433295      15.32647721      15.33038058      15.33585442      15.34171034      15.34660538      15.35136426      15.35622163      15.36129768      15.36638599      15.37164492      15.37674413      15.38005498      15.38061427      15.37953530      15.37855189      15.37842333      15.37920234
        18.52975955      18.50057699      18.44997098      18.40350934      18.35399543      18.29239206      18.22430094      18.14359554      18.02946592      17.88772187      17.72861248      17.55803302      17.35916823      17.14081658      16.93396247      16.73369834      16.54667486      16.37589392      16.19849095      16.04946943
        16.03306676      16.03631044      16.02770019      16.00738654      15.98268911      15.95866041      15.93335845      15.90499987      15.87561464      15.83688482      15.78818790      15.73721914      15.69172523      15.65913444      15.63496882      15.60944856      15.58362635      15.55834722      15.53943019      15.52841834
        15.52184086      15.52011346      15.52149441      15.52074123      15.51714094      15.51149758      15.50703974      15.50672107      15.50765017      15.50819038      15.50831876      15.50895715      15.50958502      15.50882250      15.50419420      15.49490103      15.47366305      15.43133738      15.35819207      15.25265028
        15.32836868      15.37099652      15.39125024      15.40156984      15.40716791      15.41128138      15.41454103      15.41549668      15.41531393      15.41565424      15.41385187      15.40939490      15.40389805      15.39628656      15.38789818      15.37745042      15.36660640      15.35793860      15.35258389      15.35000044
        15.34951471      15.34873238      15.34942217      15.35134679      15.35374836      15.35678229      15.36097999      15.36592522      15.37091923      15.37512805      15.37904138      15.38368625      15.38872457      15.39318723      15.39599062      15.39727697      15.39741129      15.39675706      15.39579314      15.39623151
        18.83294760      18.79154788      18.73282427      18.68506519      18.63645814      18.57040386      18.49172445      18.40391769      18.28673940      18.13870596      17.96967162      17.79500155      17.59982211      17.37278001      17.14497756      16.92685830      16.72794200      16.55494333      16.38796445      16.24552943
        16.19154708      16.16813505      16.14594646      16.11834749      16.08781679      16.05881364      16.02952289      15.99644163      15.96302832      15.92403477      15.87686916      15.82506688      15.77258515      15.72977214      15.69784051      15.66944089      15.64350903      15.61758669      15.59528695      15.58097587
        15.57162412      15.56839403      15.56979818      15.57001741      15.56714806      15.56188859      15.55600913      15.55307601      15.55179135      15.55216481      15.55316567      15.55339809      15.55167566      15.54865069      15.54342398      15.53600059      15.52013726      15.48837728      15.44041671      15.38876722
        15.40688212      15.42690943      15.43952727      15.44822367      15.45420849      15.45718102      15.45867096      15.45931059      15.46058680      15.46188809      15.45985103      15.45350259      15.44642781      15.43707297      15.42550835      15.41116595      15.39815909      15.38927853      15.38276883      15.37734774
        15.37482135      15.37380516      15.37406475      15.37422066      15.37402441      15.37547058      15.37909853      15.38333609      15.38715291      15.39109203      15.39556673      15.40017559      15.40387912      15.40729463      15.41072431      15.41362104      15.41460486      15.41378352      15.41240051      15.41268007
        19.13286943      19.08940602      19.01399828      18.94820311      18.89937369      18.84242731      18.76537622      18.66940370      18.54537302      18.39248401      18.21409141      18.02799597      17.82840164      17.59841371      17.35915882      17.12441593      16.91081415      16.73518520      16.58216175      16.44918276
        16.36355253      16.30805522      16.26572128      16.22752235      16.18994385      16.15544484      16.12293582      16.08738486      16.05092719      16.01016779      15.96124591      15.90830981      15.85364811      15.80491551      15.76445640      15.72937968      15.70100621      15.67539955      15.65143456      15.63445028
        15.62231687      15.61651002      15.61653125      15.61759709      15.61689965      15.61359878      15.60723768      15.60170692      15.59752184      15.59569359      15.59570737      15.59542741      15.59365090      15.59070759      15.58505023      15.57815979      15.56790455      15.54887796      15.52105138      15.49238801
        15.48549152      15.48788466      15.49223737      15.49726136      15.50238582      15.50597520      15.50853452      15.50837105      15.50649762      15.50534838      15.50388222      15.49848734      15.48990175      15.47765680      15.46462362      15.44995396      15.43452292      15.42186149      15.41214244      15.40469357
        15.40018943      15.39628431      15.39353477      15.39312527      15.39374013      15.39500317      15.39679653      15.39961753      15.40337895      15.40742585      15.41061124      15.41348519      15.41664177      15.42057938      15.42422285      15.42686300      15.42857611      15.42986463      15.42980421      15.42929745
        19.40284111      19.36293326      19.28937557      19.21373582      19.15547588      19.09751182      19.02869583      18.93775505      18.81213488      18.64800419      18.45216256      18.25126089      18.04807252      17.81747840      17.56916759      17.32082642      17.09179687      16.90562920      16.75365778      16.62162051
        16.51841827      16.44077305      16.38066118      16.33072131      16.28536575      16.24687827      16.21336870      16.17623429      16.13528608      16.09187764      16.04273318      15.98873452      15.92962728      15.87625293      15.83304185      15.79477763      15.76127827      15.73176418      15.70634880      15.68976483
        15.67589042      15.66510617      15.66143193      15.66280389      15.66403343      15.66198042      15.65568701      15.64977186      15.64475110      15.64025655      15.63780133      15.63689606      15.63642212      15.63483946      15.62914398      15.62186821      15.61468854      15.60440339      15.58948091      15.57143420
        15.55844767      15.55167930      15.54852374      15.54784074      15.55017592      15.55302028      15.55543038      15.55447169      15.55058796      15.54765067      15.54645851      15.54285993      15.53600896      15.52423778      15.50945427      15.49128398      15.47071336      15.45351876      15.44041388      15.42989336
        15.42254538      15.41691816      15.41339087      15.41286023      15.41279300      15.41281622      15.41341051      15.41521197      15.41741045      15.41972002      15.42245023      15.42651848      15.43098162      15.43498144      15.43832398      15.44133147      15.44348193      15.44400862      15.44254166      15.44111189
        19.65250968      19.61800714      19.54871043      19.46837121      19.40363238      19.34027704      19.27210569      19.18624001      19.06854717      18.90672093      18.69682971      18.47239595      18.25528538      18.02427702      17.77543242      17.51728599      17.26898128      17.06370333      16.90228690      16.76611717
        16.65229971      16.55973976      16.48652380      16.42805511      16.37567343      16.33020961      16.29301566      16.25603871      16.21503975      16.16989525      16.11795583      16.06371321      16.00672724      15.95257132      15.90484847      15.86107960      15.82363793      15.79109444      15.75999500      15.73812513
        15.72327740      15.71269822      15.70763701      15.70662196      15.70710876      15.70749566      15.70453863      15.69867237      15.69108062      15.68389251      15.68080558      15.67973963      15.67896463      15.67833812      15.67558923      15.67067997      15.66452892      15.65637648      15.64727480      15.63636250
        15.62461751      15.61306655      15.60323334      15.59721668      15.59695783      15.59804974      15.59920918      15.59903614      15.59640174      15.59254233      15.58898306      15.58441347      15.57872385      15.56866175      15.55322820      15.53187323      15.50621102      15.48505193      15.46936818      15.45630954
        15.44685591      15.43998378      15.43429779      15.43074330      15.42831961      15.42754935      15.42794504      15.42901688      15.43059122      15.43337993      15.43711045      15.44120515      15.44466903      15.44766663      15.45048999      15.45249987      15.45308038      15.45278702      15.45221803      15.45192180
        19.86865665      19.84755357      19.79230535      19.71016708      19.63651376      19.56785725      19.49991123      19.41588939      19.30404175      19.15147559      18.94184400      18.69638354      18.45555627      18.21133602      17.96017919      17.70316079      17.44345342      17.21650174      17.03726087      16.89084584
        16.76809153      16.66459849      16.58071985      16.51501799      16.45685213      16.40488561      16.36340288      16.32638788      16.28725264      16.24457015      16.19465032      16.13932280      16.07977482      16.02334663      15.97409927      15.92726725      15.88486618      15.84829861      15.81345985      15.78828061
        15.77228620      15.76015114      15.75267414      15.74932295      15.74856210      15.74813821      15.74544357      15.74151922      15.73705469      15.73093841      15.72659666      15.72438474      15.72423628      15.72545221      15.72434109      15.71998590      15.71437702      15.70793760      15.70115936      15.69179971
        15.68071459      15.66970866      15.65885590      15.64824910      15.64198006      15.64014153      15.64122362      15.64190493      15.63851164      15.63277909      15.62830783      15.62407342      15.61817506      15.60793231      15.59382542      15.57530814      15.54780631      15.51913657      15.49681054      15.48089709
        15.47023774      15.46132905      15.45256588      15.44726360      15.44481781      15.44382246      15.44323405      15.44368982      15.44565396      15.44827202      15.45024659      15.45228264      15.45504313      15.45794181      15.45996829      15.46068948      15.46090769      15.46130674      15.46129699      15.46051870
        20.06333771      20.04449403      20.00491535      19.93794448      19.86300015      19.78064561      19.70260127      19.61968321      19.51477101      19.37157903      19.16930292      18.91237065      18.64963181      18.38735362      18.12213353      17.86191928      17.60107281      17.36111898      17.16162690      16.99878537
        16.86519861      16.75249598      16.66029892      16.58914420      16.52813685      16.47302856      16.42835741      16.39008915      16.35121184      16.31060028      16.26490929      16.21232566      16.15061781      16.08884360      16.03759893      15.99135796      15.94773181      15.90786226      15.86823960      15.83770216