# File generated by Flopy version 3.7.0 on 06/20/2024 at 16:46:19.
BEGIN options
END options

BEGIN griddata
  strt
    INTERNAL  FACTOR  1.0
        15.00000000      15.00000000      15.00000000      15.00000000      15.00000000      15.00000000      15.00000000      15.00000000      15.00000000      15.00000000      15.00000000      15.00000000      15.00000000      15.00000000      15.00000000      15.00000000      15.00000000      15.00000000      15.00000000      15.00000000
        15.00000000      15.00000000      15.00000000      15.00000000      15.00000000      15.00000000      15.00000000      15.00000000      15.00000000      15.00000000      15.00000000      15.00000000      15.00000000      15.00000000      15.00000000      15.00000000      15.00000000      15.00000000      15.00000000      15.00000000
        15.00000000      15.00000000      15.00000000      15.00000000      15.00000000      15.00000000      15.00000000      15.00000000      15.00000000      15.00000000      15.00000000      15.00000000      15.00000000      15.00000000      15.00000000      15.00000000      15.00000000      15.00000000      15.00000000      15.00000000
        15.00000000      15.00000000      15.00000000      15.00000000      15.00000000      15.00000000      15.00000000      15.00000000      15.00000000      15.00000000      15.00000000      15.00000000      15.00000000      15.00000000      15.00000000      15.00000000      15.00000000      15.00000000      15.00000000      15.00000000
        15.00000000      15.00000000      15.00000000      15.00000000      15.00000000      15.00000000      15.00000000      15.00000000      15.00000000      15.00000000      15.00000000      15.00000000      15.00000000      15.00000000      15.00000000      15.00000000      15.00000000      15.00000000      15.00000000      15.00000000
        15.00983190      15.00968400      15.00958969      15.00959529      15.00949242      15.00911065      15.00846332      15.00756869      15.00656002      15.00528339      15.00397823      15.00270423      15.00142594      15.00017751      14.99904036      14.99810434      14.99732236      14.99664875      14.99618074      14.99599287
        14.99621172      14.99656028      14.99701914      14.99775105      14.99876982      15.00000305      15.00138950      15.00295460      15.00458295      15.00602864      15.00727392      15.00829556      15.00930583      15.01012324      15.01072663      15.01130795      15.01224023      15.01350753      15.01477826      15.01605231
        15.01829618      15.02173461      15.02552147      15.02945988      15.03297822      15.03659806      15.03953793      15.04223091      15.04497453      15.04974921      15.05484156      15.05977463      15.06488097      15.06902745      15.07314449      15.07476171      15.07438895      15.07380291      15.07190295      15.07029704
        15.06846651      15.06579561      15.06209808      15.05788285      15.05334638      15.04906355      15.04539974      15.04320076      15.04177329      15.04067942      15.03960856      15.03960718      15.04093230      15.04459061      15.04953737      15.05620802      15.06413061      15.07250254      15.08047690      15.09026633
        15.09878220      15.10481368      15.10901352      15.11120594      15.11168049      15.11141547      15.11032585      15.10956491      15.11169140      15.11639050      15.12282670      15.13466178      15.14825110      15.15984086      15.16945531      15.18047776      15.19355019      15.20188360      15.20606987      15.20829020
        15.01804093      15.01789050      15.01774414      15.01756135      15.01697500      15.01593396      15.01440923      15.01244758      15.01030948      15.00794928      15.00565616      15.00344204      15.00107875      14.99858566      14.99620838      14.99414762      14.99235874      14.99083068      14.98970735      14.98919135
        14.98933962      14.98993271      14.99092065      14.99257603      14.99488268      14.99764205      15.00068542      15.00402725      15.00740320      15.01030193      15.01280139      15.01511388      15.01730045      15.01919601      15.02093395      15.02299138      15.02583670      15.02906268      15.03249583      15.03646579
        15.04255389      15.05124739      15.06046252      15.06935938      15.07664203      15.08325048      15.08846968      15.09454451      15.10175230      15.11087869      15.11931254      15.12589363      15.13188790      15.13555721      15.13601368      15.13335523      15.13003053      15.12653777      15.12305472      15.11955624
        15.11576144      15.11073794      15.10526413      15.09971441      15.09390751      15.08871482      15.08473117      15.08286018      15.08153535      15.08143932      15.08320955      15.08819199      15.09568125      15.10611692      15.11755583      15.12966283      15.14286790      15.15803105      15.17429400      15.19070103
        15.20295558      15.20902632      15.21226250      15.21244830      15.21261297      15.21340215      15.21403145      15.21696271      15.22398177      15.23340394      15.24537162      15.26336956      15.28332582      15.30189415      15.32150593      15.33973855      15.35549379      15.36167378      15.36143805      15.36021935
        15.02519886      15.02500915      15.02451714      15.02369984      15.02230942      15.02041570      15.01801678      15.01512409      15.01208651      15.00892306      15.00579975      15.00253700      14.99880558      14.99465372      14.99056097      14.98675183      14.98327394      14.98032544      14.97823508      14.97717248
        14.97702692      14.97793060      14.97988377      14.98310488      14.98725340      14.99194108      14.99709034      15.00256651      15.00793797      15.01259630      15.01679666      15.02084457      15.02471065      15.02861264      15.03266830      15.03726899      15.04264471      15.04846726      15.05567457      15.06456078
        15.07677220      15.09081684      15.10307730      15.11368628      15.12260936      15.13086701      15.13805939      15.14636973      15.15574367      15.16566166      15.17369012      15.17769739      15.17965352      15.17915138      15.17576089      15.17055870      15.16506731      15.15962444      15.15529182      15.15186070
        15.14860937      15.14499345      15.14091749      15.13674742      15.13221151      15.12880306      15.12661797      15.12641349      15.12826205      15.13241242      15.13986517      15.14994240      15.16089275      15.17344846      15.18688116      15.20210526      15.21956125      15.23923119      15.26009930      15.27800673
        15.28928273      15.29458595      15.29732385      15.29945604      15.30284192      15.30680231      15.31124024      15.31739584      15.32668331      15.33834484      15.35264057      15.37053899      15.39169376      15.41477646      15.43878206      15.45824111      15.46911487      15.47095786      15.46796463      15.46444616
        15.03040167      15.02987654      15.02882995      15.02734951      15.02532808      15.02277060      15.01971741      15.01623767      15.01251691      15.00850781      15.00413969      14.99910234      14.99319101      14.98659105      14.97992734      14.97337314      14.96689256      14.96124123      14.95758761      14.95585356
        14.95569408      14.95778181      14.96200123      14.96804521      14.97524786      14.98282168      14.99060094      14.99847571      15.00608283      15.01279644      15.01914114      15.02548772      15.03191471      15.03861413      15.04554362      15.05312971      15.06205901      15.07253129      15.08507946      15.09860556
        15.11391587      15.12862035      15.13979730      15.14905117      15.15769397      15.16676015      15.17593993      15.18524308      15.19414642      15.20235094      15.20723277      15.20784250      15.20650296      15.20312804      15.19842193      15.19272213      15.18697714      15.18154400      15.17709248      15.17429771
        15.17313528      15.17266972      15.17230472      15.17203425      15.17177817      15.17231055      15.17359294      15.17704537      15.18308738      15.18999290      15.19859933      15.20796375      15.21830506      15.23136332      15.24747917      15.26684206      15.28782438      15.30898750      15.32883949      15.34491375
        15.35528432      15.36174074      15.36724320      15.37378190      15.37978324      15.38515362      15.39117535      15.39894877      15.40972322      15.42191957      15.43692389      15.45509953      15.47619847      15.49758509      15.51785552      15.53205960      15.53841003      15.53995867      15.53845714      15.53676346
        15.03271307      15.03195508      15.03058543      15.02870130      15.02626831      15.02327704      15.01975463      15.01562684      15.01090531      15.00516417      14.99847826      14.99087965      14.98214493      14.97241430      14.96188180      14.95039929      14.93924767      14.92999672      14.92313019      14.91976596
        14.92150804      14.92793133      14.93721167      14.94813164      14.95988619      14.97121779      14.98198528      14.99229142      15.00224035      15.01130463      15.02006353      15.02906506      15.03828405      15.04805958      15.05832810      15.06983259      15.08315247      15.09741433      15.11260040      15.12707817
        15.14114308      15.15401037      15.16410000      15.17295430      15.18201575      15.19230518      15.20180403      15.20978670      15.21574990      15.22007003      15.22143433      15.22002362      15.21753810      15.21371486      15.20907878      15.20381268      15.19864345      15.19401756      15.19041401      15.18914088
        15.19090370      15.19483271      15.19949183      15.20436617      15.20855021      15.21260986      15.21768261      15.22389024      15.23066790      15.23707420      15.24389971      15.25272490      15.26454111      15.28022792      15.29936986      15.32028139      15.34097392      15.36037882      15.37752647      15.39239546
        15.40419594      15.41325045      15.42123417      15.42872171      15.43513032      15.44121875      15.44794792      15.45653022      15.46808137      15.48175265      15.49775614      15.51580156      15.53390952      15.55010109      15.56412029      15.57276810      15.57761530      15.58001631      15.58019486      15.57925978
        15.03284900      15.03198472      15.03036239      15.02810843      15.02525126      15.02169406      15.01721890      15.01163047      15.00473112      14.99627226      14.98706174      14.97708612      14.96519287      14.95062507      14.93400289      14.91592794      14.89771989      14.87988440      14.86496502      14.85974918
        14.86800812      14.88535603      14.90511216      14.92345496      14.94047405      14.95597045      14.97018786      14.98355524      14.99622297      15.00782747      15.01930115      15.03123480      15.04348780      15.05656076      15.06996781      15.08425844      15.09954051      15.11475609      15.13020969      15.14391757
        15.15670106      15.16885507      15.17881542      15.18791975      15.19702647      15.20615556      15.21313039      15.21791787      15.22077112      15.22270984      15.22288666      15.22124116      15.21883945      15.21539458      15.21125280      15.20653473      15.20168009      15.19724558      15.19416294      15.19441718
        15.19956094      15.20816093      15.21768305      15.22657894      15.23389901      15.24059711      15.24779327      15.25449020      15.26100747      15.26770976      15.27582148      15.28667382      15.30018955      15.31696520      15.33648689      15.35650049      15.37536790      15.39320998      15.40975062      15.42465428
        15.43664252      15.44591679      15.45377277      15.46132122      15.46895773      15.47702221      15.48514116      15.49473142      15.50695279      15.52123915      15.53620803      15.55138338      15.56509978      15.57693972      15.58688662      15.59287127      15.59670841      15.59836009      15.59835276      15.59749473
        15.03083382      15.02977322      15.02767642      15.02475635      15.02102426      15.01620020      15.00989550      15.00192219      14.99268542      14.98231438      14.97136940      14.95853316      14.94129734      14.91909267      14.89374296      14.86528856      14.83204445      14.79690844      14.77253829      14.77054034
        14.79294516      14.82766729      14.86187056      14.89068742      14.91457666      14.93543055      14.95387342      14.97062662      14.98680980      15.00172521      15.01635216      15.03149947      15.04669798      15.06225207      15.07755312      15.09302189      15.10880766      15.12414153      15.13908938      15.15179586
        15.16343468      15.17437330      15.18349979      15.19171655      15.19922783      15.20595159      15.21077461      15.21400546      15.21614536      15.21771106      15.21803648      15.21693453      15.21502117      15.21207804      15.20816801      15.20319100      15.19733238      15.19124387      15.18667662      15.18701591
        15.19514094      15.20883008      15.22330272      15.23599566      15.24641494      15.25552842      15.26399064      15.27153515      15.27937918      15.28792843      15.29801662      15.31070105      15.32561482      15.34335956      15.36254080      15.38115927      15.39872446      15.41499844      15.42977038      15.44296466
        15.45374894      15.46239541      15.47031363      15.47880949      15.48777014      15.49751507      15.50713405      15.51740307      15.52892967      15.54154094      15.55402260      15.56608765      15.57668096      15.58535432      15.59229349      15.59630800      15.59900049      15.60020337      15.60037138      15.59994135
        15.02481035      15.02320564      15.02025364      15.01626126      15.01101881      15.00414399      14.99561926      14.98582168      14.97561832      14.96375911      14.94993248      14.93179906      14.90623802      14.87331324      14.83535890      14.79106582      14.73838358      14.68477307      14.64924814      14.65165265
        14.69568510      14.75438777      14.80671455      14.84873825      14.88141324      14.90833005      14.93202385      14.95337817      14.97364120      14.99231545      15.01044987      15.02874103      15.04650567      15.06428677      15.08094468      15.09688751      15.11265290      15.12757161      15.14138167      15.15244431
        15.16215780      15.17162319      15.17979752      15.18687608      15.19299525      15.19848420      15.20294678      15.20622676      15.20841043      15.21000716      15.21066912      15.21005042      15.20848755      15.20580267      15.20162587      15.19564880      15.18774035      15.17835308      15.16987996      15.16897429
        15.18050083      15.20017885      15.22036100      15.23734355      15.25072970      15.26195964      15.27213261      15.28150170      15.29124498      15.30179382      15.31370710      15.32830690      15.34452386      15.36214472      15.37969716      15.39641664      15.41164153      15.42502868      15.43759323      15.44957543
        15.45992103      15.46873272      15.47710002      15.48602365      15.49565359      15.50604091      15.51581415      15.52531355      15.53538612      15.54613678      15.55655995      15.56606746      15.57350241      15.57922896      15.58403041      15.58717818      15.58966853      15.59100104      15.59129146      15.59087504
        15.01133937      15.00900250      15.00487056      14.99900272      14.99164744      14.98275891      14.97276535      14.96226539      14.95064191      14.93563339      14.91634281      14.89035762      14.85507991      14.81249566      14.76397554      14.70658458      14.63845946      14.56338816      14.49407996      14.48062221
        14.55940231      14.65951380      14.73901668      14.79778632      14.84207233      14.87683885      14.90625601      14.93250790      14.95712759      14.97966115      15.00107281      15.02260706      15.04318844      15.06282278      15.08016889      15.09615566      15.11138366      15.12497990      15.13709753      15.14699474
        15.15594623      15.16463390      15.17207557      15.17835844      15.18392014      15.18922642      15.19377478      15.19730268      15.19969489      15.20134969      15.20214803      15.20203000      15.20093724      15.19856877      15.19441606      15.18762404      15.17733136      15.16275441      15.14720505      15.14339795
        15.16028722      15.18825332      15.21459104      15.23546783      15.25121911      15.26432029      15.27630688      15.28739529      15.29875700      15.31083956      15.32416981      15.33955671      15.35525795      15.37102108      15.38645067      15.40100191      15.41398806      15.42588821      15.43799201      15.44981763
        15.45986421      15.46845313      15.47685677      15.48581378      15.49523982      15.50516443      15.51424309      15.52267233      15.53131550      15.54026335      15.54827773      15.55502429      15.56054193      15.56536093      15.56977329      15.57308285      15.57560655      15.57698301      15.57724754      15.57695901
        14.98673446      14.98406591      14.97902201      14.97181101      14.96281755      14.95281213      14.94238208      14.93082963      14.91638371      14.89604980      14.86965174      14.83649009      14.79446039      14.74620036      14.69290618      14.63025926      14.54946062      14.43510582      14.26400908      14.24407484
        14.26469241      14.02559355      14.06064385      14.34595572      14.54567434      14.66735670      14.74457440      14.79960028      14.84228632      14.87794662      14.90947545      14.93858092      14.96452366      14.98868788      15.01248320      15.03544741      15.05695180      15.07481696      15.09030739      15.10448353
        15.11695282      15.12825893      15.13788921      15.14679440      15.15542505      15.16263106      15.16872603      15.17418774      15.17922471      15.18366995      15.18727700      15.19001280      15.19221281      15.19382742      15.19467121      15.19452155      15.19296740      15.18911014      15.18149655      15.16847665
        15.14791884      15.11812307      15.11108735      15.11455607      15.08292263      15.08743850      15.13326018      15.17693911      15.20999695      15.23400153      15.25150135      15.26589295      15.27886261      15.29068623      15.30257904      15.31517979      15.32862516      15.34301667      15.35708159      15.37115039
        15.38514817      15.39863538      15.41106973      15.42259850      15.43432608      15.44582340      15.45567810      15.46423190      15.47243240      15.48087313      15.48967775      15.49879000      15.50696749      15.51430201      15.52135911      15.52837399      15.53485916      15.54087551      15.54650979      15.55183711
        15.55662200      15.56014261      15.56273615      15.56423671      15.56466042      15.56456292      14.94960172      14.94739018      14.94299687      14.93629646      14.92709449      14.91680176      14.90526549      14.89082815      14.87129056      14.84438344      14.81202347      14.77430448      14.73006087      14.68242493
        14.63166288      14.57010357      14.48144866      14.33829296      14.15613016      13.97163510      14.13762726      13.95755769      13.77271641      13.63742812      13.60114179      13.36872725      13.20899637      13.19425697      12.90432066      12.70986040      12.70291349      11.95406089      13.68858572      13.86284543
        13.30287546      13.49164858      12.93930819      13.14211212      12.72502389      13.07461726      13.38754344      13.73466540      13.62238552      13.27181950      12.92418960      12.71764997      13.12126656      13.06013708      13.44926948      13.35861702      13.78122932      13.67942581      12.93308918      13.14863992
        13.14247702      13.25473158      13.42463488      13.41230105      13.54470310      13.74612411      13.72180118      13.86689511      14.08261580      14.27413401      14.07322770      14.25932740      14.46301330      14.60600720      14.69451278      14.75752400      14.80605798      14.84673090      14.88229528      14.91487471
        14.94420624      14.97165463      14.99759850      15.02147183      15.04394621      15.06255203      15.07835512      15.09259648      15.10523816      15.11676963      15.12667277      15.13584631      15.14487562      15.15253225      15.15897908      15.16466913      15.16957095      15.17384711      15.17753451      15.18065870
        15.18363605      15.18645469      15.18848050      15.18933035      15.18860412      15.18511292      15.17737417      15.16376978      15.14045229      15.10887566      15.08093144      15.10928545      15.08199562      15.05112828      15.03123021      15.03035529      14.99778202      14.97598418      14.97552435      14.93714484
        14.91161587      14.91131519      14.81433965      15.03660014      15.05901200      14.98727919      15.01129233      14.94070043      14.96664938      14.91327087      14.95807934      14.99805166      15.04201461      15.03397970      14.98603096      14.94010761      14.91296140      14.96571463      14.95740247      15.00912287
        14.99638542      15.05433279      15.03819635      14.94029935      14.96785049      14.96753243      14.98173757      15.00321440      15.00238362      15.01895170      15.04420787      15.04209179      15.06100969      15.09434719      15.12762854      15.09418224      15.12779659      15.17176495      15.21039595      15.23564880
        15.25324760      15.26743777      15.27983784      15.29124173      15.30261991      15.31449229      15.32706151      15.34037090      15.35343105      15.36661574      15.37979705      15.39266146      15.40483029      15.41611781      15.42746845      15.43880739      15.44884281      15.45760254      15.46587792      15.47396784
        15.48211329      15.49046790      15.49793391      15.50430579      15.51014216      15.51632329      15.52299662      15.52954747      15.53557514      15.54101705      15.54585500      15.54961385      15.55251407      15.55430207      15.55499664      15.55514522      14.90205341      14.90021253      14.89648767      14.89035767
        14.88152226      14.86983112      14.85515114      14.83688089      14.81355096      14.78317366      14.75007260      14.71410759      14.67412972      14.63000011      14.58248862      14.52473378      14.44592032      14.33497641      14.17486341      13.98327323      14.02217491      14.14506334      14.16900624      14.26052536
        14.44649096      14.56738079      14.65064024      14.71351139      14.76438412      14.80869364      14.84897106      14.88597467      14.91782895      14.94762347      14.97636201      15.00206200      15.02545949      15.04527098      15.06261821      15.07818609      15.09157929      15.10402808      15.11487754      15.12470909
        15.13439308      15.14265006      15.14925761      15.15482779      15.15980644      15.16425323      15.16823218      15.17193826      15.17572499      15.17949692      15.18261415      15.18447154      15.18461332      15.18211953      15.17580757      15.16468052      15.14693287      15.11944602      15.08584950      15.08902512
        15.11414096      15.11706308      15.13610811      15.18288127      15.21686240      15.23922406      15.25489932      15.26746672      15.27849932      15.28896084      15.29978168      15.31097787      15.32252989      15.33486099      15.34720499      15.35983825      15.37258595      15.38500400      15.39710950      15.40854403
        15.41975374      15.43089661      15.44090519      15.44972377      15.45812088      15.46639449      15.47459126      15.48267668      15.48973130      15.49563443      15.50122659      15.50736239      15.51410655      15.52089875      15.52706312      15.53243344      15.53733057      15.54129011      15.54434285      15.54637109
        15.54725878      15.54761368      14.85074860      14.84930717      14.84544461      14.83778532      14.82660693      14.81283876      14.79712742      14.77856068      14.75592072      14.72734167      14.69654329      14.66214165      14.62190919      14.57870416      14.53481494      14.48607768      14.43127478      14.37112979
        14.31319235      14.30133811      14.36860959      14.46389251      14.54653878      14.61330032      14.66960885      14.71936533      14.76570954      14.80929561      14.85148102      14.88836801      14.92174071      14.95290030      14.98094881      15.00650790      15.02786628      15.04617741      15.06311195      15.07774648
        15.09101521      15.10290069      15.11346611      15.12358932      15.13228146      15.13900125      15.14438341      15.14915373      15.15371951      15.15813372      15.16255796      15.16722866      15.17201393      15.17616271      15.17916971      15.18053857      15.17979674      15.17602694      15.16908990      15.15927603
        15.14916508      15.15027749      15.17107213      15.20012953      15.22425780      15.24172678      15.25464646      15.26549569      15.27553355      15.28520664      15.29525549      15.30593343      15.31717198      15.32906211      15.34090161      15.35310360      15.36564360      15.37788221      15.38970668      15.40110140
        15.41224451      15.42310224      15.43301134      15.44186737      15.45017375      15.45835578      15.46660452      15.47485227      15.48204230      15.48794697      15.49348981      15.49952697      15.50617213      15.51289086      15.51911303      15.52471303      15.52986261      15.53390493      15.53689170      15.53898998
        15.54018879      15.54060873      14.80342006      14.80114499      14.79508814      14.78495555      14.77281229      14.75970488      14.74470780      14.72678642      14.70402559      14.67487770      14.64175122      14.60563496      14.56566777      14.52673065      14.49058669      14.45589060      14.42214167      14.39161910
        14.37247096      14.37892517      14.41802185      14.47520152      14.53301277      14.58636949      14.63601628      14.68254281      14.72855864      14.77422637      14.81940283      14.85958925      14.89588741      14.92998296      14.96046275      14.98800728      15.01055569      15.02976563      15.04773297      15.06350442
        15.07753330      15.09004787      15.10121813      15.11143730      15.11979863      15.12650268      15.13193499      15.13680691      15.14168353      15.14674261      15.15198777      15.15741518      15.16304713      15.16818764      15.17241196      15.17524195      15.17649205      15.17585444      15.17355105      15.17083402
        15.17045483      15.17695008      15.19197228      15.21067514      15.22787743      15.24153274      15.25247779      15.26228036      15.27167794      15.28087750      15.29042528      15.30065532      15.31152085      15.32323766      15.33504937      15.34714056      15.35952816      15.37175348      15.38350139      15.39442919
        15.40523946      15.41602040      15.42579217      15.43446539      15.44258523      15.45063575      15.45878200      15.46689283      15.47411353      15.48024611      15.48587296      15.49180203      15.49835008      15.50511741      15.51149134      15.51722600      15.52245299      15.52667659      15.52993729      15.53229095
        15.53374485      15.53428865      14.76123846      14.75707895      14.74910564      14.73931942      14.72863702      14.71606196      14.70013051      14.68057029      14.65491563      14.62217395      14.58714700      14.55108429      14.51466087      14.48216381      14.45482788      14.43033395      14.40903288      14.39402167
        14.38995647      14.40195161      14.43130181      14.47297084      14.51939079      14.56501789      14.61039051      14.65602218      14.70179623      14.74821785      14.79416276      14.83539327      14.87319074      14.90907168      14.94097707      14.96979506      14.99325259      15.01277429      15.03151868      15.04842596
        15.06319872      15.07574113      15.08663289      15.09637616      15.10437809      15.11108314      15.11702654      15.12273786      15.12870253      15.13469288      15.14055214      15.14656049      15.15268922      15.15836876      15.16346347      15.16772199      15.17078167      15.17289382      15.17432862      15.17635029
        15.18055995      15.18824479      15.19999086      15.21376128      15.22698226      15.23856993      15.24862560      15.25812511      15.26753607      15.27668117      15.28605041      15.29596145      15.30630270      15.31758126      15.32940265      15.34156692      15.35389939      15.36608942      15.37786256      15.38873298
        15.39927205      15.40983672      15.41956917      15.42820540      15.43626668      15.44406064      15.45181320      15.45964620      15.46680143      15.47307496      15.47892772      15.48495039      15.49154060      15.49842372      15.50505018      15.51106575      15.51648675      15.52090253      15.52442747      15.52703903
        15.52849287      15.52902250      14.72669232      14.72233835      14.71544843      14.70683218      14.69621030      14.68272133      14.66475568      14.64159101      14.61125686      14.57423587      14.53667390      14.50096622      14.46865947      14.44176231      14.42049679      14.40290517      14.38998969      14.38374837
        14.38652961      14.40033272      14.42607159      14.46148008      14.50173384      14.54326973      14.58606834      14.63130082      14.67716089      14.72364373      14.77074238      14.81329276      14.85246086      14.89013452      14.92295727      14.95188487      14.97582451      14.99599991      15.01500832      15.03234096