# File generated by Flopy version 3.5.0 on 03/08/2024 at 12:51:18.
BEGIN options
  PRINT_OPTION  summary
  COMPLEXITY  complex
END options

BEGIN linear
  LINEAR_ACCELERATION  bicgstab
END linear

