# File generated by Flopy version 3.6.0 on 09/25/2024 at 09:11:51.
BEGIN griddata
  strt
    INTERNAL  FACTOR  1.0
        15.00000000      15.00000000      15.00000000      15.00000000      15.00000000      15.00000000      15.00000000      15.00000000      15.00000000      15.00000000      15.00000000      15.00000000      15.00000000      15.00000000      15.00000000      15.00000000      15.00000000      15.00000000      15.00000000      15.00000000
        15.00000000      15.00000000      15.00000000      15.00000000      15.00000000      15.00000000      15.00000000      15.00000000      15.00000000      15.00000000      15.00000000      15.00000000      15.00000000      15.00000000      15.00000000      15.00000000      15.00000000      15.00000000      15.00000000      15.00000000
        15.00000000      15.00000000      15.00000000      15.00000000      15.00000000      15.00000000      15.00000000      15.00000000      15.00000000      15.00000000      15.00000000      15.00000000      15.00000000      15.00000000      15.00000000      15.00000000      15.00000000      15.00000000      15.00000000      15.00000000
        15.00000000      15.00000000      15.00000000      15.00000000      15.00000000      15.00000000      15.00000000      15.00000000      15.00000000      15.00000000      15.00000000      15.00000000      15.00000000      15.00000000      15.00000000      15.00000000      15.00000000      15.00000000      15.00000000      15.00000000
        15.00000000      15.00000000      15.00000000      15.00000000      15.00000000      15.00000000      15.00000000      15.00000000      15.00000000      15.00000000      15.00000000      15.00000000      15.00000000      15.00000000      15.00000000      15.00000000      15.00000000      15.00000000      15.00000000      15.00000000
        15.17050484      15.16738989      15.15801969      15.15214654      15.15075586      15.14466583      15.13603143      15.13116767      15.13515671      15.14548194      15.16322015      15.18201437      15.20451341      15.22768190      15.24875589      15.25493281      15.26337168      15.27666828      15.29375054      15.31609887
        15.32923076      15.32616684      15.30449502      15.26726061      15.22045984      15.17460376      15.14044187      15.11353887      15.09219853      15.07700033      15.06851092      15.06477782      15.06410497      15.06558116      15.06886395      15.07435195      15.08079669      15.08796717      15.09229927      15.09176167
        15.08956068      15.08707919      15.08448484      15.08076737      15.07764373      15.07428964      15.07071659      15.06765725      15.06470075      15.06386043      15.06357659      15.06501209      15.06693661      15.07095639      15.07482568      15.07632357      15.07785359      15.07870114      15.07728810      15.07571674
        15.07595657      15.07584550      15.07685848      15.08167451      15.08704285      15.09367767      15.10157168      15.10652286      15.10647770      15.10458946      15.10589649      15.10781075      15.11042994      15.11589476      15.12056709      15.12525155      15.13458790      15.14623045      15.15669909      15.15475586
        15.14593854      15.13629040      15.13203882      15.13157073      15.13222662      15.13626285      15.14282732      15.14653551      15.14873832      15.15147330      15.15601342      15.16219052      15.16826001      15.17159146      15.16927100      15.16307490      15.15620533      15.14802416      15.14151670      15.13594752
        15.32170659      15.31829516      15.30878351      15.29897332      15.29258035      15.28298478      15.27120225      15.26397781      15.26653884      15.27940526      15.30467674      15.33487077      15.36984077      15.40754825      15.44457205      15.46685298      15.48494333      15.50407461      15.52538361      15.54812079
        15.56501041      15.56410855      15.53700710      15.48441727      15.41421496      15.33509017      15.26892909      15.21840507      15.18090947      15.15598489      15.14074051      15.13233866      15.12946107      15.13004330      15.13346876      15.13985464      15.14844377      15.15805559      15.16482393      15.16776929
        15.16622093      15.16384887      15.16166038      15.15759925      15.15273814      15.14871107      15.14327957      15.13708575      15.13155795      15.12866555      15.12739591      15.12830877      15.13109701      15.13733085      15.14400892      15.14829646      15.15254965      15.15550689      15.15705759      15.15650568
        15.15755191      15.15942274      15.16216059      15.16860267      15.17769929      15.18673458      15.19772072      15.20554549      15.20837680      15.20656984      15.20701762      15.21159049      15.21756589      15.22467459      15.23328500      15.24243857      15.25424184      15.27241894      15.28899405      15.29293334
        15.28433062      15.27152264      15.26339599      15.26365762      15.26730285      15.27363792      15.28025596      15.28773347      15.29064458      15.29308440      15.29659570      15.30210395      15.30874063      15.31609699      15.31756361      15.30725038      15.29510695      15.28312766      15.27511255      15.26802040
        15.45867373      15.45528753      15.44858799      15.43715671      15.42729347      15.41651821      15.40393433      15.39540166      15.39515733      15.40646764      15.43131503      15.46857529      15.51030406      15.55607053      15.60234748      15.64368329      15.67174033      15.69472270      15.71247052      15.72980249
        15.74385476      15.74224884      15.71477622      15.65897069      15.57902540      15.48159080      15.39162520      15.31946727      15.26546318      15.23073795      15.21094998      15.19978205      15.19525948      15.19460363      15.19663363      15.20032097      15.20695930      15.21543991      15.22316518      15.22865340
        15.22998543      15.22933467      15.22971308      15.22784660      15.22307533      15.21869955      15.21237035      15.20363314      15.19680276      15.19192072      15.18997087      15.18990036      15.19286016      15.19873890      15.20694788      15.21453291      15.22180794      15.22872087      15.23491883      15.23705212
        15.24083976      15.24652598      15.25239645      15.25974188      15.26888467      15.27776511      15.28695180      15.29575950      15.30146068      15.30251337      15.30289836      15.30937656      15.31711285      15.32674428      15.33725541      15.34971720      15.36399862      15.38365849      15.40072390      15.41244489
        15.41056659      15.40196577      15.39094567      15.38980020      15.39417914      15.40000549      15.40591414      15.41437012      15.41812978      15.41917025      15.42129159      15.42401433      15.42870362      15.43548971      15.43997018      15.43222905      15.41607819      15.40191306      15.39188712      15.38519872
        15.58709636      15.58430093      15.57830422      15.56573967      15.55412580      15.54387907      15.53011499      15.52012861      15.51818615      15.52708794      15.54994317      15.58819216      15.63373520      15.68439235      15.73813067      15.79100563      15.82866700      15.85376496      15.86690202      15.87440239
        15.88077027      15.87555078      15.84897112      15.79445995      15.71473536      15.61120007      15.50625402      15.41770721      15.34831259      15.30056258      15.27483155      15.26184901      15.25714572      15.25681513      15.25820914      15.25895236      15.26103648      15.26640368      15.27328023      15.27880271
        15.28308936      15.28535286      15.28851411      15.29015583      15.28717453      15.28263447      15.27552254      15.26574699      15.25795850      15.25231688      15.24991655      15.24923421      15.25232540      15.25826122      15.26693124      15.27703927      15.28803240      15.29991205      15.31007143      15.31697680
        15.32433082      15.33428475      15.34265853      15.35054718      15.35849503      15.36595022      15.37197835      15.37969446      15.38703937      15.39123966      15.39447071      15.40192450      15.41202931      15.42352610      15.43421888      15.44767584      15.46419063      15.48121839      15.49709140      15.51359400
        15.52266073      15.52262440      15.51398679      15.50827238      15.50994658      15.51142876      15.51637365      15.52332268      15.52775664      15.52935534      15.53170759      15.53301394      15.53464267      15.53795428      15.54073800      15.53735788      15.52169334      15.50601059      15.49486486      15.48882312
        15.70467110      15.70348344      15.69689221      15.68380316      15.67052234      15.66035215      15.64767136      15.63705950      15.63571204      15.64381755      15.66458157      15.69883718      15.74424287      15.79861483      15.85863377      15.91435400      15.95724920      15.98128690      15.99057633      15.99083785
        15.98845274      15.97730859      15.95039045      15.89864257      15.82210285      15.72231463      15.61171742      15.51144044      15.42953336      15.36913825      15.33392900      15.31733039      15.31215141      15.31275708      15.31450849      15.31479260      15.31363969      15.31515069      15.31945647      15.32386453
        15.32933228      15.33419695      15.33927784      15.34352949      15.34313226      15.33939066      15.33258966      15.32349589      15.31474014      15.30885671      15.30613000      15.30575712      15.30939765      15.31670924      15.32591628      15.33823236      15.35318348      15.36871750      15.38219003      15.39454903
        15.40591542      15.41713155      15.42707074      15.43455472      15.44180703      15.44720980      15.45167137      15.45791601      15.46588162      15.47377059      15.48127632      15.49050903      15.50195134      15.51293782      15.52407299      15.53711856      15.55220938      15.56662378      15.58267708      15.60101804
        15.61858485      15.62665896      15.62510572      15.61872590      15.61549991      15.61250395      15.61373732      15.61795789      15.62204276      15.62521817      15.62868197      15.63144464      15.63117728      15.63030478      15.63080029      15.62970150      15.61878158      15.60245193      15.59037467      15.58597324
        15.80703276      15.80749507      15.80250154      15.79007599      15.77582963      15.76557607      15.75729242      15.74968686      15.74971434      15.75794022      15.77611415      15.80568593      15.84910935      15.90387231      15.96455123      16.01883898      16.06032771      16.08110870      16.08681577      16.08357468
        16.07448336      16.05783697      16.02842687      15.97967162      15.90708000      15.81364031      15.70618417      15.60092130      15.50812991      15.43655638      15.39027044      15.36830988      15.36072797      15.36074942      15.36283848      15.36436579      15.36333250      15.36218535      15.36335026      15.36660679
        15.37168876      15.37703850      15.38266642      15.38820493      15.39081759      15.38888392      15.38400189      15.37668538      15.36832186      15.36196896      15.35911098      15.35989104      15.36463841      15.37297905      15.38403026      15.39772501      15.41517518      15.43386177      15.45144358      15.46848510
        15.48330236      15.49464417      15.50392661      15.51068234      15.51648854      15.52053640      15.52442201      15.53064335      15.53869263      15.54986724      15.56101128      15.57258209      15.58309045      15.59324840      15.60562446      15.61828140      15.63111372      15.64427927      15.66037268      15.67890734
        15.69878919      15.71367201      15.71949598      15.71699604      15.71078836      15.70535791      15.70254701      15.70307372      15.70693651      15.71112190      15.71598040      15.72109710      15.72217244      15.71942962      15.71797333      15.71737675      15.71232438      15.69763814      15.68471815      15.68162801
        15.89604588      15.89560430      15.89337925      15.88499023      15.87179842      15.86215689      15.85771587      15.85639359      15.85813879      15.86766529      15.88531222      15.91255509      15.95230884      16.00225109      16.05762041      16.10821464      16.14482214      16.16190341      16.16472359      16.15857129
        16.14457748      16.12314720      16.08978194      16.04152664      15.97467646      15.88838805      15.78809433      15.68326128      15.58393158      15.50205159      15.44529637      15.41587180      15.40471431      15.40251871      15.40408719      15.40587254      15.40635879      15.40502934      15.40426964      15.40639251
        15.41052179      15.41588250      15.42095746      15.42685844      15.43183512      15.43257134      15.43009494      15.42523916      15.41862818      15.41272648      15.41029173      15.41157717      15.41751255      15.42736501      15.43956819      15.45491856      15.47381475      15.49538807      15.51747396      15.53917154
        15.55748222      15.56989109      15.57728180      15.58270711      15.58636394      15.58875808      15.59168103      15.59743974      15.60622008      15.61890342      15.63320286      15.64565346      15.65587401      15.66571563      15.67832233      15.69138668      15.70385339      15.71660650      15.73124914      15.74902843
        15.76846721      15.78659502      15.79743232      15.80004148      15.79575735      15.78947047      15.78496096      15.78261485      15.78565393      15.79102313      15.79669356      15.80422478      15.80879088      15.80750714      15.80465818      15.80301261      15.80153896      15.79270018      15.78259937      15.77897267
        15.97254191      15.97076397      15.96970474      15.96590479      15.95775067      15.94976399      15.94736158      15.95016742      15.95571443      15.96798947      15.98712251      16.01568676      16.05103808      16.09464775      16.14228858      16.18758694      16.21826398      16.23136831      16.23097402      16.22114695
        16.20419617      16.17838487      16.14183814      16.09187750      16.02887950      15.95033610      15.85891742      15.75869458      15.65613846      15.56567484      15.49927651      15.46013268      15.44408326      15.43922569      15.43942353      15.44061667      15.44157490      15.44099091      15.44057204      15.44207619
        15.44556917      15.45061346      15.45552903      15.46097354      15.46638141      15.46953777      15.46982709      15.46761310      15.46349596      15.45952970      15.45827019      15.46049115      15.46696613      15.47758904      15.49076928      15.50806892      15.52896816      15.55320605      15.57981436      15.60665858
        15.62873910      15.64260025      15.64955481      15.65271535      15.65319999      15.65314011      15.65471551      15.65920083      15.66883333      15.68205999      15.69761810      15.71061255      15.72114147      15.73124649      15.74273298      15.75554820      15.76826992      15.78115458      15.79471798      15.81199211
        15.83070097      15.84841415      15.86130134      15.86869434      15.86924924      15.86453310      15.86031596      15.85833213      15.86074314      15.86622896      15.87265779      15.88134009      15.88958927      15.89249346      15.89046165      15.88846712      15.88798604      15.88781297      15.88350618      15.87964003
        16.03570586      16.03399335      16.03317151      16.03275771      16.03065987      16.02671611      16.02622002      16.02992447      16.03991685      16.05589596      16.07812457      16.10730356      16.14067478      16.17894198      16.22011700      16.25812936      16.28365548      16.29278344      16.28863248      16.27431231
        16.25471705      16.22617132      16.18721070      16.13612149      16.07449953      16.00197058      15.91765212      15.82417737      15.72258676      15.62505347      15.54956274      15.50128667      15.47899065      15.47136230      15.46970895      15.47014458      15.47074112      15.47067570      15.47134328      15.47309937
        15.47651246      15.48087476      15.48543809      15.49010865      15.49500794      15.49948761      15.50236857      15.50267134      15.50138395      15.50043969      15.50091450      15.50483477      15.51168828      15.52193126      15.53644031      15.55487690      15.57776713      15.60539178      15.63637202      15.66830153
        15.69395584      15.70984589      15.71761401      15.71907060      15.71702032      15.71410824      15.71367635      15.71706735      15.72629556      15.73938415      15.75381041      15.76719744      15.77856762      15.78852292      15.79884662      15.81036883      15.82285704      15.83528906      15.84984261      15.86710856
        15.88553100      15.90191761      15.91577921      15.92632799      15.93203739      15.93175476      15.92930315      15.92914807      15.93190595      15.93720480      15.94501178      15.95434209      15.96445533      15.97262956      15.97525749      15.97610683      15.97683041      15.98247007      15.98418203      15.98163955
        16.08747797      16.08648592      16.08604555      16.08768918      16.08977812      16.09160968      16.09527643      16.10156516      16.11425894      16.13386532      16.15876899      16.18684205      16.21964464      16.25474759      16.29122354      16.32311932      16.34502134      16.35049871      16.34190785      16.32300461
        16.29881209      16.26793868      16.22651958      16.17456043      16.11318295      16.04481255      15.96625926      15.87797332      15.77928603      15.67884928      15.59548246      15.53961060      15.51109695      15.50042379      15.49682020      15.49633804      15.49648693      15.49693160      15.49826952      15.50045567
        15.50365426      15.50760304      15.51137459      15.51529971      15.51970655      15.52428565      15.52858152      15.53114458      15.53231736      15.53399836      15.53659312      15.54157622      15.54937802      15.56012166      15.57494594      15.59426904      15.61895268      15.64942908      15.68455562      15.72078134
        15.75007029      15.76830528      15.77735336      15.77906868      15.77658441      15.77196263      15.76983831      15.77142995      15.77847968      15.79011998      15.80281173      15.81567116      15.82733009      15.83681650      15.84629806      15.85657835      15.86807023      15.88068792      15.89631341      15.91400502
        15.93225301      15.94805847      15.96316621      15.97577248      15.98534047      15.99097980      15.99262193      15.99403793      15.99744939      16.00371648      16.01293033      16.02418998      16.03602487      16.04912439      16.05942129      16.06651849      16.07061684      16.07661623      16.08285410      16.08350709
        16.12959287      16.12963861      16.13017077      16.13258124      16.13712753      16.14354679      16.15254834      16.16408497      16.18013010      16.20237603      16.22886259      16.25676692      16.28871367      16.32253461      16.35623105      16.38570692      16.40465942      16.40824023      16.39485633      16.37033915
        16.34025380      16.30592183      16.26159411      16.20734879      16.14555440      16.07900540      16.00518761      15.92175229      15.82674876      15.72643568      15.63887525      15.57559221      15.54072800      15.52667974      15.52174817      15.52016417      15.52010614      15.52084851      15.52279616      15.52525896
        15.52800786      15.53117612      15.53431937      15.53753758      15.54135834      15.54548124      15.54987862      15.55391567      15.55717157      15.56034643      15.56444046      15.57036872      15.57910079      15.59078214      15.60602623      15.62635200      15.65255917      15.68485873      15.72322141      15.76367423
        15.79636701      15.81662818      15.82681347      15.82999525      15.82910988      15.82593115      15.82352788      15.82356389      15.82707375      15.83539396      15.84620265      15.85770104      15.86827104      15.87753198      15.88629858      15.89594190      15.90676964      15.91965160      15.93571130      15.95388837
        15.97169293      15.98811182      16.00411593      16.01832570      16.03108179      16.04172283      16.04926848      16.05444961      16.05949759      16.06734917      16.07871391      16.09250354      16.10829766      16.12649828      16.14501398      16.15976045      16.16967815      16.17572677      16.18111689      16.18405605
        16.16225216      16.16384212      16.16610825      16.16952890      16.17569231      16.18507803      16.19827614      16.21479824      16.23466863      16.25942203      16.28753463      16.31675266      16.34899648      16.38232695      16.41465264      16.44278596      16.46049413      16.46341243      16.44688182      16.41653522
        16.37993500      16.34067706      16.29349381      16.23599550      16.17246978      16.10558849      16.03500110      15.95619283      15.86599595      15.76841276      15.67815710      15.60928747      15.56794785      15.54988716      15.54358745      15.54146164      15.54127667      15.54188437      15.54391305      15.54656278
        15.54927207      15.55149813      15.55411816      15.55685694      15.55988862      15.56350376      15.56740689      15.57176771      15.57605223      15.58028690      15.58525108      15.59200387      15.60129533      15.61355171      15.62993325      15.65106710      15.67823095      15.71150647      15.75243096      15.79639075
        15.83243953      15.85559746      15.86803323      15.87366704      15.87488690      15.87478343      15.87336898      15.87308037      15.87357533      15.87736720      15.88510608      15.89424643      15.90317891      15.91213299      15.92039175      15.92969505      15.94011414      15.95290693      15.96868135      15.98683288
        16.00495199      16.02236440      16.03865797      16.05408808      16.06933464      16.08392207      16.09680469      16.10777607      16.11786369      16.12875705      16.14269374      16.15957346      16.18033968      16.20518151      16.23138646      16.25346843      16.27010413      16.27861254      16.28106698      16.28271608
        16.18800523      16.19039684      16.19415991      16.19932192      16.20710603      16.21838432      16.23380159      16.25346872      16.27712965      16.30437708      16.33346785      16.36561284      16.40058827      16.43467140      16.46572414      16.49218021      16.50982290      16.51256140      16.49572915      16.46152176
        16.41887898      16.37342979      16.32265575      16.26270655      16.19658056      16.12835539      16.05790627      15.98288991      15.89785666      15.80429655      15.71363850      15.64077997      15.59371173      15.57121661      15.56271809      15.56000409      15.55956700      15.56003522      15.56154375      15.56393561
        15.56649215      15.56850016      15.57066902      15.57310457      15.57556256      15.57847666      15.58181375      15.58576813      15.59004528      15.59486131      15.60032255      15.60744042      15.61690161      15.62976709      15.64714081      15.66910906      15.69655823      15.72984837      15.77223718      15.81895430
        15.85993588      15.88707321      15.90308176      15.91256283      15.91649823      15.91844093      15.91864189      15.91763563      15.91685891      15.91662984      15.92022011      15.92610996      15.93325148      15.94168147      15.94984875      15.95854991      15.96838974      15.98073651      15.99601170      16.01396462
        16.03244346      16.05025951      16.06683960      16.08337269      16.10043856      16.11800449      16.13500140      16.15143064      16.16777801      16.18409089      16.20203367      16.22281063      16.24876464      16.28050981      16.31404674      16.34429437      16.36766496      16.38003363      16.38201497      16.38136468
        16.20826070      16.21075125      16.21515859      16.22161737      16.23037587      16.24291662      16.25978537      16.28116309      16.30663088      16.33503419      16.36541967      16.39999974      16.43816233      16.47561658      16.50797037      16.53420766      16.55167471      16.55446748      16.53968644      16.50596302
        16.45947787      16.40673174      16.35068839      16.28829372      16.21949137      16.14950135      16.07785253      16.00422746      15.92383322      15.83373091      15.74437188      15.66961334      15.61827874      15.59105567      15.57996136      15.57614135      15.57514104      15.57546424      15.57640365      15.57814600
        15.58026058      15.58233975      15.58430554      15.58634277      15.58844198      15.59082399      15.59377187      15.59717911      15.60117741      15.60583800      15.61131039      15.61851490      15.62809493      15.64135485      15.65888566      15.68148342      15.70912565      15.74236248      15.78508004      15.83425618
        15.88030600      15.91233144      15.93281821      15.94630434      15.95410130      15.95767228      15.95921929      15.95756352      15.95562185      15.95314408      15.95283444      15.95563597      15.96096394      15.96798146      15.97595419      15.98412755      15.99333097      16.00489943      16.01990453      16.03734924
        16.05560203      16.07302580      16.08979907      16.10700158      16.12530852      16.14475963      16.16519547      16.18589230      16.20697360      16.22950569      16.25296465      16.27956260      16.31181408      16.34948504      16.38965076      16.42963655      16.46046274      16.47755558      16.48090488      16.47948886
        16.22412609      16.22646932      16.23087279      16.23747707      16.24647717      16.25954385      16.27729711      16.29904003      16.32374640      16.35123242      16.38228930      16.41739826      16.45809012      16.50108482      16.53876333      16.56746157      16.58550240      16.59028334      16.57898328      16.54885428
        16.50248704      16.44398503      16.38055713      16.31404498      16.24143926      16.16855216      16.09638870      16.02298818      15.94552093      15.85904513      15.77082635      15.69494949      15.64112380      15.60964070      15.59546186      15.59022541      15.58849067      15.58836004      15.58882300      15.58997805
        15.59169911      15.59361487      15.59537533      15.59701176      15.59877120      15.60092282      15.60358801      15.60662977      15.61019470      15.61441917      15.61967671      15.62670437      15.63633563      15.64941073      15.66666253      15.68915553      15.71681730      15.75039858      15.79314155      15.84403381
        15.89415562      15.93200396      15.95775315      15.97485844      15.98600051      15.99225789      15.99488282      15.99353398      15.99036336      15.98697921      15.98420887      15.98442034      15.98765585      15.99273277      15.99971706      16.00743232      16.01611485      16.02704889      16.04150997      16.05842434
        16.07574345      16.09217090      16.10848543      16.12555442      16.14438032      16.16519062      16.18760988      16.21099683      16.23586612      16.26306927      16.29187992      16.32569556      16.36618461      16.41101710      16.45819469      16.50645875      16.54450537      16.56700675      16.57382617      16.57357918
        16.23629035      16.23832050      16.24235484      16.24850962      16.25723139      16.26998779      16.28725508      16.30751023      16.33001022      16.35533531      16.38488378      16.41975556      16.46167176      16.50974952      16.55488096      16.58896442      16.60944449      16.61813972      16.61317459      16.58930758
        16.54654508      16.48624473      16.41525936      16.34229921      16.26495652      16.18738849      16.11326990      16.03881619      15.96285903      15.88056578      15.79398311      15.71720684      15.66163655      15.62759832      15.61001965      15.60278422      15.60019550      15.59944113      15.59943778      15.60009734
        15.60134333      15.60285911      15.60437449      15.60579978      15.60729059      15.60919427      15.61159346      15.61433585      15.61753756      15.62135156      15.62619176      15.63277491      15.64217309      15.65503131      15.67182126      15.69329654      15.72055261      15.75442033      15.79731880      15.84891672
        15.90240378      15.94669414      15.97794024      15.99926832      16.01397629      16.02330100      16.02692588      16.02597350      16.02217977      16.01808965      16.01400795      16.01219026      16.01322765      16.01675822      16.02215637      16.02891790      16.03730090      16.04793260      16.06153516      16.07748427
        16.09319234      16.10839136      16.12361015      16.14020741      16.15917065      16.18003139      16.20251811      16.22684238      16.25411176      16.28403755      16.31666572      16.35720021      16.40740337      16.46189638      16.51741383      16.57210790      16.61668276      16.64495253      16.65641109      16.65868584
        16.24489738      16.24667441      16.25027899      16.25585391      16.26392766      16.27568707      16.29101143      16.30868753      16.32828480      16.35046356      16.37661248      16.40999872      16.45152269      16.50233494      16.55481564      16.59667161      16.62254781      16.63631899      16.63990552      16.62633184
        16.59141913      16.53451185      16.45777580      16.37559044      16.29177432      16.20753817      16.12866185      16.05194929      15.97501026      15.89629538      15.81399369      15.73735410      15.68003533      15.64410822      15.62406715      15.61458853      15.61078711      15.60933825      15.60882538      15.60894071