# File generated by Flopy version 3.6.0 on 07/18/2024 at 15:43:23.
BEGIN griddata
  strt
    INTERNAL  FACTOR  1.0
        20.00000000      20.00000000      20.00000000      20.00000000      20.00000000      20.00000000      20.00000000      20.00000000      20.00000000      20.00000000      20.00000000      20.00000000      20.00000000      20.00000000      20.00000000      20.00000000      20.00000000      20.00000000      20.00000000      20.00000000
        20.00000000      20.00000000      20.00000000      20.00000000      20.00000000      20.00000000      20.00000000      20.00000000      20.00000000      20.00000000      20.00000000      20.00000000      20.00000000      20.00000000      20.00000000      20.00000000      20.00000000      20.00000000      20.00000000      20.00000000
        20.00000000      20.00000000      20.00000000      20.00000000      20.00000000      20.00000000      20.00000000      20.00000000      20.00000000      20.00000000      20.00000000      20.00000000      20.00000000      20.00000000      20.00000000      20.00000000      20.00000000      20.00000000      20.00000000      20.00000000
        20.00000000      20.00000000      20.00000000      20.00000000      20.00000000      20.00000000      20.00000000      20.00000000      20.00000000      20.00000000      20.00000000      20.00000000      20.00000000      20.00000000      20.00000000      20.00000000      20.00000000      20.00000000      20.00000000      20.00000000
        20.00000000      20.00000000      20.00000000      20.00000000      20.00000000      20.00000000      20.00000000      20.00000000      20.00000000      20.00000000      20.00000000      20.00000000      20.00000000      20.00000000      20.00000000      20.00000000      20.00000000      20.00000000      20.00000000      20.00000000
        20.00000000      20.00000000      20.00000000      20.00000000      20.00000000      20.00000000      20.00000000      20.00000000      20.00000000      20.00000000      20.00000000      20.00000000      20.00000000      20.00000000      20.00000000      20.00000000      20.00000000      20.00000000      20.00000000      20.00000000
        20.00000000      20.00000000      20.00000000      20.00000000      20.00000000      20.00000000      20.00000000      20.00000000      20.00000000      20.00000000      20.00000000      20.00000000      20.00000000      20.00000000      20.00000000      20.00000000      20.00000000      20.00000000      20.00000000      20.00000000
        20.00000000      20.00000000      20.00000000      20.00000000      20.00000000      20.00000000      20.00000000      20.00000000      20.00000000      20.00000000      20.00000000      20.00000000      20.00000000      20.00000000      20.00000000      20.00000000      20.00000000      20.00000000      20.00000000      20.00000000
        20.00000000      20.00000000      20.00000000      20.00000000      20.00000000      20.00000000      20.00000000      20.00000000      20.00000000      20.00000000      20.00000000      20.00000000      20.00000000      20.00000000      20.00000000      20.00000000      20.00000000      20.00000000      20.00000000      20.00000000
        20.00000000      20.00000000      20.00000000      20.00000000      20.00000000      20.00000000      20.00000000      20.00000000      20.00000000      20.00000000      20.00000000      20.00000000      20.00000000      20.00000000      20.00000000      20.00000000      20.00000000      20.00000000      20.00000000      20.00000000
        20.00000000      20.00000000      20.00000000      20.00000000      20.00000000      20.00000000      20.00000000      20.00000000      20.00000000      20.00000000      20.00000000      20.00000000      20.00000000      20.00000000      20.00000000      20.00000000      20.00000000      20.00000000      20.00000000      20.00000000
        20.00000000      20.00000000      20.00000000      20.00000000      20.00000000      20.00000000      20.00000000      20.00000000      20.00000000      20.00000000      20.00000000      20.00000000      20.00000000      20.00000000      20.00000000      20.00000000      20.00000000      20.00000000      20.00000000      20.00000000
        20.00000000      20.00000000      20.00000000      20.00000000      20.00000000      20.00000000      20.00000000      20.00000000      20.00000000      20.00000000      20.00000000      20.00000000      20.00000000      20.00000000      20.00000000      20.00000000      20.00000000      20.00000000      20.00000000      20.00000000
        20.00000000      20.00000000      20.00000000      20.00000000      20.00000000      20.00000000      20.00000000      20.00000000      20.00000000      20.00000000      20.00000000      20.00000000      20.00000000      20.00000000      20.00000000      20.00000000      20.00000000      20.00000000      20.00000000      20.00000000
        20.00000000      20.00000000      20.00000000      20.00000000      20.00000000      20.00000000      20.00000000      20.00000000      20.00000000      20.00000000      20.00000000      20.00000000      20.00000000      20.00000000      20.00000000      20.00000000      20.00000000      20.00000000      20.00000000      20.00000000
        20.00000000      20.00000000      20.00000000      20.00000000      20.00000000      20.00000000      20.00000000      20.00000000      20.00000000      20.00000000      20.00000000      20.00000000      20.00000000      20.00000000      20.00000000      20.00000000      20.00000000      20.00000000      20.00000000      20.00000000
        20.00000000      20.00000000      20.00000000      20.00000000      20.00000000      20.00000000      20.00000000      20.00000000      20.00000000      20.00000000      20.00000000      20.00000000      20.00000000      20.00000000      20.00000000      20.00000000      20.00000000      20.00000000      20.00000000      20.00000000
        20.00000000      20.00000000      20.00000000      20.00000000      20.00000000      20.00000000      20.00000000      20.00000000      20.00000000      20.00000000      20.00000000      20.00000000      20.00000000      20.00000000      20.00000000      20.00000000      20.00000000      20.00000000      20.00000000      20.00000000
        20.00000000      20.00000000      20.00000000      20.00000000      20.00000000      20.00000000      20.00000000      20.00000000      20.00000000      20.00000000      20.00000000      20.00000000      20.00000000      20.00000000      20.00000000      20.00000000      20.00000000      20.00000000      20.00000000      20.00000000
        20.00000000      20.00000000      20.00000000      20.00000000      20.00000000      20.00000000      20.00000000      20.00000000      20.00000000      20.00000000      20.00000000      20.00000000      20.00000000      20.00000000      20.00000000      20.00000000      20.00000000      20.00000000      20.00000000      20.00000000
        20.00000000      20.00000000      20.00000000      20.00000000      20.00000000      20.00000000      20.00000000      20.00000000      20.00000000      20.00000000      20.00000000      20.00000000      20.00000000      20.00000000      20.00000000      20.00000000      20.00000000      20.00000000      20.00000000      20.00000000
        20.00000000      20.00000000      20.00000000      20.00000000      20.00000000      20.00000000      20.00000000      20.00000000      20.00000000      20.00000000      20.00000000      20.00000000      20.00000000      20.00000000      20.00000000      20.00000000      20.00000000      20.00000000      20.00000000      20.00000000
        20.00000000      20.00000000      20.00000000      20.00000000      20.00000000      20.00000000      20.00000000      20.00000000      20.00000000      20.00000000      20.00000000      20.00000000      20.00000000      20.00000000      20.00000000      20.00000000      20.00000000      20.00000000      20.00000000      20.00000000
        20.00000000      20.00000000      20.00000000      20.00000000      20.00000000      20.00000000      20.00000000      20.00000000      20.00000000      20.00000000      20.00000000      20.00000000      20.00000000      20.00000000      20.00000000      20.00000000      20.00000000      20.00000000      20.00000000      20.00000000
        20.00000000      20.00000000      20.00000000      20.00000000      20.00000000      20.00000000      20.00000000      20.00000000      20.00000000      20.00000000      20.00000000      20.00000000      20.00000000      20.00000000      20.00000000      20.00000000      20.00000000      20.00000000      20.00000000      20.00000000
        20.00000000      20.00000000      20.00000000      20.00000000      20.00000000      20.00000000      20.00000000      20.00000000      20.00000000      20.00000000      20.00000000      20.00000000      20.00000000      20.00000000      20.00000000      20.00000000      20.00000000      20.00000000      20.00000000      20.00000000
        20.00000000      20.00000000      20.00000000      20.00000000      20.00000000      20.00000000      20.00000000      20.00000000      20.00000000      20.00000000      20.00000000      20.00000000      20.00000000      20.00000000      20.00000000      20.00000000      20.00000000      20.00000000      20.00000000      20.00000000
        20.00000000      20.00000000      20.00000000      20.00000000      20.00000000      20.00000000      20.00000000      20.00000000      20.00000000      20.00000000      20.00000000      20.00000000      20.00000000      20.00000000      20.00000000      20.00000000      20.00000000      20.00000000      20.00000000      20.00000000
        20.00000000      20.00000000      20.00000000      20.00000000      20.00000000      20.00000000      20.00000000      20.00000000      20.00000000      20.00000000      20.00000000      20.00000000      20.00000000      20.00000000      20.00000000      20.00000000      20.00000000      20.00000000      20.00000000      20.00000000
        20.00000000      20.00000000      20.00000000      20.00000000      20.00000000      20.00000000      20.00000000      20.00000000      20.00000000      20.00000000      20.00000000      20.00000000      20.00000000      20.00000000      20.00000000      20.00000000      20.00000000      20.00000000      20.00000000      20.00000000
        20.00000000      20.00000000      20.00000000      20.00000000      20.00000000      20.00000000      20.00000000      20.00000000      20.00000000      20.00000000      20.00000000      20.00000000      20.00000000      20.00000000      20.00000000      20.00000000      20.00000000      20.00000000      20.00000000      20.00000000
        20.00000000      20.00000000      20.00000000      20.00000000      20.00000000      20.00000000      20.00000000      20.00000000      20.00000000      20.00000000      20.00000000      20.00000000      20.00000000      20.00000000      20.00000000      20.00000000      20.00000000      20.00000000      20.00000000      20.00000000
        20.00000000      20.00000000      20.00000000      20.00000000      20.00000000      20.00000000      20.00000000      20.00000000      20.00000000      20.00000000      20.00000000      20.00000000      20.00000000      20.00000000      20.00000000      20.00000000      20.00000000      20.00000000      20.00000000      20.00000000
        20.00000000      20.00000000      20.00000000      20.00000000      20.00000000      20.00000000      20.00000000      20.00000000      20.00000000      20.00000000      20.00000000      20.00000000      20.00000000      20.00000000      20.00000000      20.00000000      20.00000000      20.00000000      20.00000000      20.00000000
        20.00000000      20.00000000      20.00000000      20.00000000      20.00000000      20.00000000      20.00000000      20.00000000      20.00000000      20.00000000      20.00000000      20.00000000      20.00000000      20.00000000      20.00000000      20.00000000      20.00000000      20.00000000      20.00000000      20.00000000
        20.00000000      20.00000000      20.00000000      20.00000000      20.00000000      20.00000000      20.00000000      20.00000000      20.00000000      20.00000000      20.00000000      20.00000000      20.00000000      20.00000000      20.00000000      20.00000000      20.00000000      20.00000000      20.00000000      20.00000000
        20.00000000      20.00000000      20.00000000      20.00000000      20.00000000      20.00000000      20.00000000      20.00000000      20.00000000      20.00000000      20.00000000      20.00000000      20.00000000      20.00000000      20.00000000      20.00000000      20.00000000      20.00000000      20.00000000      20.00000000
        20.00000000      20.00000000      20.00000000      20.00000000      20.00000000      20.00000000      20.00000000      20.00000000      20.00000000      20.00000000      20.00000000      20.00000000      20.00000000      20.00000000      20.00000000      20.00000000      20.00000000      20.00000000      20.00000000      20.00000000
        20.00000000      20.00000000      20.00000000      20.00000000      20.00000000      20.00000000      20.00000000      20.00000000      20.00000000      20.00000000      20.00000000      20.00000000      20.00000000      20.00000000      20.00000000      20.00000000      20.00000000      20.00000000      20.00000000      20.00000000
        20.00000000      20.00000000      20.00000000      20.00000000      20.00000000      20.00000000      20.00000000      20.00000000      20.00000000      20.00000000      20.00000000      20.00000000      20.00000000      20.00000000      20.00000000      20.00000000      20.00000000      20.00000000      20.00000000      20.00000000
        20.00000000      20.00000000      20.00000000      20.00000000      20.00000000      20.00000000      20.00000000      20.00000000      20.00000000      20.00000000      20.00000000      20.00000000      20.00000000      20.00000000      20.00000000      20.00000000      20.00000000      20.00000000      20.00000000      20.00000000
        20.00000000      20.00000000      20.00000000      20.00000000      20.00000000      20.00000000      20.00000000      20.00000000      20.00000000      20.00000000      20.00000000      20.00000000      20.00000000      20.00000000      20.00000000      20.00000000      20.00000000      20.00000000      20.00000000      20.00000000
        20.00000000      20.00000000      20.00000000      20.00000000      20.00000000      20.00000000      20.00000000      20.00000000      20.00000000      20.00000000      20.00000000      20.00000000      20.00000000      20.00000000      20.00000000      20.00000000      20.00000000      20.00000000      20.00000000      20.00000000
        20.00000000      20.00000000      20.00000000      20.00000000      20.00000000      20.00000000      20.00000000      20.00000000      20.00000000      20.00000000      20.00000000      20.00000000      20.00000000      20.00000000      20.00000000      20.00000000      20.00000000      20.00000000      20.00000000      20.00000000
        20.00000000      20.00000000      20.00000000      20.00000000      20.00000000      20.00000000      20.00000000      20.00000000      20.00000000      20.00000000      20.00000000      20.00000000      20.00000000      20.00000000      20.00000000      20.00000000      20.00000000      20.00000000      20.00000000      20.00000000
        20.00000000      20.00000000      20.00000000      20.00000000      20.00000000      20.00000000      20.00000000      20.00000000      20.00000000      20.00000000      20.00000000      20.00000000      20.00000000      20.00000000      20.00000000      20.00000000      20.00000000      20.00000000      20.00000000      20.00000000
        20.00000000      20.00000000      20.00000000      20.00000000      20.00000000      20.00000000      20.00000000      20.00000000      20.00000000      20.00000000      20.00000000      20.00000000      20.00000000      20.00000000      20.00000000      20.00000000      20.00000000      20.00000000      20.00000000      20.00000000
        20.00000000      20.00000000      20.00000000      20.00000000      20.00000000      20.00000000      20.00000000      20.00000000      20.00000000      20.00000000      20.00000000      20.00000000      20.00000000      20.00000000      20.00000000      20.00000000      20.00000000      20.00000000      20.00000000      20.00000000
        20.00000000      20.00000000      20.00000000      20.00000000      20.00000000      20.00000000      20.00000000      20.00000000      20.00000000      20.00000000      20.00000000      20.00000000      20.00000000      20.00000000      20.00000000      20.00000000      20.00000000      20.00000000      20.00000000      20.00000000
        20.00000000      20.00000000      20.00000000      20.00000000      20.00000000      20.00000000      20.00000000      20.00000000      20.00000000      20.00000000      20.00000000      20.00000000      20.00000000      20.00000000      20.00000000      20.00000000      20.00000000      20.00000000      20.00000000      20.00000000
        20.00000000      20.00000000      20.00000000      20.00000000      20.00000000      20.00000000      20.00000000      20.00000000      20.00000000      20.00000000      20.00000000      20.00000000      20.00000000      20.00000000      20.00000000      20.00000000      20.00000000      20.00000000      20.00000000      20.00000000
        20.00000000      20.00000000      20.00000000      20.00000000      20.00000000      20.00000000      20.00000000      20.00000000      20.00000000      20.00000000      20.00000000      20.00000000      20.00000000      20.00000000      20.00000000      20.00000000      20.00000000      20.00000000      20.00000000      20.00000000
        20.00000000      20.00000000      20.00000000      20.00000000      20.00000000      20.00000000      20.00000000      20.00000000      20.00000000      20.00000000      20.00000000      20.00000000      20.00000000      20.00000000      20.00000000      20.00000000      20.00000000      20.00000000      20.00000000      20.00000000
        20.00000000      20.00000000      20.00000000      20.00000000      20.00000000      20.00000000      20.00000000      20.00000000      20.00000000      20.00000000      20.00000000      20.00000000      20.00000000      20.00000000      20.00000000      20.00000000      20.00000000      20.00000000      20.00000000      20.00000000
        20.00000000      20.00000000      20.00000000      20.00000000      20.00000000      20.00000000      20.00000000      20.00000000      20.00000000      20.00000000      20.00000000      20.00000000      20.00000000      20.00000000      20.00000000      20.00000000      20.00000000      20.00000000      20.00000000      20.00000000
        20.00000000      20.00000000      20.00000000      20.00000000      20.00000000      20.00000000      20.00000000      20.00000000      20.00000000      20.00000000      20.00000000      20.00000000      20.00000000      20.00000000      20.00000000      20.00000000      20.00000000      20.00000000      20.00000000      20.00000000
        20.00000000      20.00000000      20.00000000      20.00000000      20.00000000      20.00000000      20.00000000      20.00000000      20.00000000      20.00000000      20.00000000      20.00000000      20.00000000      20.00000000      20.00000000      20.00000000      20.00000000      20.00000000      20.00000000      20.00000000
        20.00000000      20.00000000      20.00000000      20.00000000      20.00000000      20.00000000      20.00000000      20.00000000      20.00000000      20.00000000      20.00000000      20.00000000      20.00000000      20.00000000      20.00000000      20.00000000      20.00000000      20.00000000      20.00000000      20.00000000
        20.00000000      20.00000000      20.00000000      20.00000000      20.00000000      20.00000000      20.00000000      20.00000000      20.00000000      20.00000000      20.00000000      20.00000000      20.00000000      20.00000000      20.00000000      20.00000000      20.00000000      20.00000000      20.00000000      20.00000000
        20.00000000      20.00000000      20.00000000      20.00000000      20.00000000      20.00000000      20.00000000      20.00000000      20.00000000      20.00000000      20.00000000      20.00000000      20.00000000      20.00000000      20.00000000      20.00000000      20.00000000      20.00000000      20.00000000      20.00000000
        20.00000000      20.00000000      20.00000000      20.00000000      20.00000000      20.00000000      20.00000000      20.00000000      20.00000000      20.00000000      20.00000000      20.00000000      20.00000000      20.00000000      20.00000000      20.00000000      20.00000000      20.00000000      20.00000000      20.00000000
        20.00000000      20.00000000      20.00000000      20.00000000      20.00000000      20.00000000      20.00000000      20.00000000      20.00000000      20.00000000      20.00000000      20.00000000      20.00000000      20.00000000      20.00000000      20.00000000      20.00000000      20.00000000      20.00000000      20.00000000
        20.00000000      20.00000000      20.00000000      20.00000000      20.00000000      20.00000000      20.00000000      20.00000000      20.00000000      20.00000000      20.00000000      20.00000000      20.00000000      20.00000000      20.00000000      20.00000000      20.00000000      20.00000000      20.00000000      20.00000000
        20.00000000      20.00000000      20.00000000      20.00000000      20.00000000      20.00000000      20.00000000      20.00000000      20.00000000      20.00000000      20.00000000      20.00000000      20.00000000      20.00000000      20.00000000      20.00000000      20.00000000      20.00000000      20.00000000      20.00000000
        20.00000000      20.00000000      20.00000000      20.00000000      20.00000000      20.00000000      20.00000000      20.00000000      20.00000000      20.00000000      20.00000000      20.00000000      20.00000000      20.00000000      20.00000000      20.00000000      20.00000000      20.00000000      20.00000000      20.00000000
        20.00000000      20.00000000      20.00000000      20.00000000      20.00000000      20.00000000      20.00000000      20.00000000      20.00000000      20.00000000      20.00000000      20.00000000      20.00000000      20.00000000      20.00000000      20.00000000      20.00000000      20.00000000      20.00000000      20.00000000
        20.00000000      20.00000000      20.00000000      20.00000000      20.00000000      20.00000000      20.00000000      20.00000000      20.00000000      20.00000000      20.00000000      20.00000000      20.00000000      20.00000000      20.00000000      20.00000000      20.00000000      20.00000000      20.00000000      20.00000000
        20.00000000      20.00000000      20.00000000      20.00000000      20.00000000      20.00000000      20.00000000      20.00000000      20.00000000      20.00000000      20.00000000      20.00000000      20.00000000      20.00000000      20.00000000      20.00000000      20.00000000      20.00000000      20.00000000      20.00000000
        20.00000000      20.00000000      20.00000000      20.00000000      20.00000000      20.00000000      20.00000000      20.00000000      20.00000000      20.00000000      20.00000000      20.00000000      20.00000000      20.00000000      20.00000000      20.00000000      20.00000000      20.00000000      20.00000000      20.00000000
        20.00000000      20.00000000      20.00000000      20.00000000      20.00000000      20.00000000      20.00000000      20.00000000      20.00000000      20.00000000      20.00000000      20.00000000      20.00000000      20.00000000      20.00000000      20.00000000      20.00000000      20.00000000      20.00000000      20.00000000
        20.00000000      20.00000000      20.00000000      20.00000000      20.00000000      20.00000000      20.00000000      20.00000000      20.00000000      20.00000000      20.00000000      20.00000000      20.00000000      20.00000000      20.00000000      20.00000000      20.00000000      20.00000000      20.00000000      20.00000000
        20.00000000      20.00000000      20.00000000      20.00000000      20.00000000      20.00000000      20.00000000      20.00000000      20.00000000      20.00000000      20.00000000      20.00000000      20.00000000      20.00000000      20.00000000      20.00000000      20.00000000      20.00000000      20.00000000      20.00000000
        20.00000000      20.00000000      20.00000000      20.00000000      20.00000000      20.00000000      20.00000000      20.00000000      20.00000000      20.00000000      20.00000000      20.00000000      20.00000000      20.00000000      20.00000000      20.00000000      20.00000000      20.00000000      20.00000000      20.00000000
        20.00000000      20.00000000      20.00000000      20.00000000      20.00000000      20.00000000      20.00000000      20.00000000      20.00000000      20.00000000      20.00000000      20.00000000      20.00000000      20.00000000      20.00000000      20.00000000      20.00000000      20.00000000      20.00000000      20.00000000
        20.00000000      20.00000000      20.00000000      20.00000000      20.00000000      20.00000000      20.00000000      20.00000000      20.00000000      20.00000000      20.00000000      20.00000000      20.00000000      20.00000000      20.00000000      20.00000000      20.00000000      20.00000000      20.00000000      20.00000000
        20.00000000      20.00000000      20.00000000      20.00000000      20.00000000      20.00000000      20.00000000      20.00000000      20.00000000      20.00000000      20.00000000      20.00000000      20.00000000      20.00000000      20.00000000      20.00000000      20.00000000      20.00000000      20.00000000      20.00000000
        20.00000000      20.00000000      20.00000000      20.00000000      20.00000000      20.00000000      20.00000000      20.00000000      20.00000000      20.00000000      20.00000000      20.00000000      20.00000000      20.00000000      20.00000000      20.00000000      20.00000000      20.00000000      20.00000000      20.00000000
        20.00000000      20.00000000      20.00000000      20.00000000      20.00000000      20.00000000      20.00000000      20.00000000      20.00000000      20.00000000      20.00000000      20.00000000      20.00000000      20.00000000      20.00000000      20.00000000      20.00000000      20.00000000      20.00000000      20.00000000
        20.00000000      20.00000000      20.00000000      20.00000000      20.00000000      20.00000000      20.00000000      20.00000000      20.00000000      20.00000000      20.00000000      20.00000000      20.00000000      20.00000000      20.00000000      20.00000000      20.00000000      20.00000000      20.00000000      20.00000000
        20.00000000      20.00000000      20.00000000      20.00000000      20.00000000      20.00000000      20.00000000      20.00000000      20.00000000      20.00000000      20.00000000      20.00000000      20.00000000      20.00000000      20.00000000      20.00000000      20.00000000      20.00000000      20.00000000      20.00000000
        20.00000000      20.00000000      20.00000000      20.00000000      20.00000000      20.00000000      20.00000000      20.00000000      20.00000000      20.00000000      20.00000000      20.00000000      20.00000000      20.00000000      20.00000000      20.00000000      20.00000000      20.00000000      20.00000000      20.00000000
        20.00000000      20.00000000      20.00000000      20.00000000      20.00000000      20.00000000      20.00000000      20.00000000      20.00000000      20.00000000      20.00000000      20.00000000      20.00000000      20.00000000      20.00000000      20.00000000      20.00000000      20.00000000      20.00000000      20.00000000
        20.00000000      20.00000000      20.00000000      20.00000000      20.00000000      20.00000000      20.00000000      20.00000000      20.00000000      20.00000000      20.00000000      20.00000000      20.00000000      20.00000000      20.00000000      20.00000000      20.00000000      20.00000000      20.00000000      20.00000000
        20.00000000      20.00000000      20.00000000      20.00000000      20.00000000      20.00000000      20.00000000      20.00000000      20.00000000      20.00000000      20.00000000      20.00000000      20.00000000      20.00000000      20.00000000      20.00000000      20.00000000      20.00000000      20.00000000      20.00000000
        20.00000000      20.00000000      20.00000000      20.00000000      20.00000000      20.00000000      20.00000000      20.00000000      20.00000000      20.00000000      20.00000000      20.00000000      20.00000000      20.00000000      20.00000000      20.00000000      20.00000000      20.00000000      20.00000000      20.00000000
        20.00000000      20.00000000      20.00000000      20.00000000      20.00000000      20.00000000      20.00000000      20.00000000      20.00000000      20.00000000      20.00000000      20.00000000      20.00000000      20.00000000      20.00000000      20.00000000      20.00000000      20.00000000      20.00000000      20.00000000
        20.00000000      20.00000000      20.00000000      20.00000000      20.00000000      20.00000000      20.00000000      20.00000000      20.00000000      20.00000000      20.00000000      20.00000000      20.00000000      20.00000000      20.00000000      20.00000000      20.00000000      20.00000000      20.00000000      20.00000000