# File generated by Flopy version 3.6.0 on 12/12/2024 at 09:27:15.
BEGIN options
END options

BEGIN dimensions
  MAXBOUND  100
END dimensions

BEGIN period  1
  1 4901 1.25820000E+01 1.00000000E-03 1.05820000E+01
  1 4902 1.25820000E+01 1.00000000E-03 1.05820000E+01
  1 4903 1.25820000E+01 1.00000000E-03 1.05820000E+01
  1 4904 1.25820000E+01 1.00000000E-03 1.05820000E+01
  1 4905 1.25820000E+01 1.00000000E-03 1.05820000E+01
  1 4906 1.25820000E+01 1.00000000E-03 1.05820000E+01
  1 4907 1.25820000E+01 1.00000000E-03 1.05820000E+01
  1 4908 1.25820000E+01 1.00000000E-03 1.05820000E+01
  1 4909 1.25820000E+01 1.00000000E-03 1.05820000E+01
  1 4910 1.25820000E+01 1.00000000E-03 1.05820000E+01
  1 4911 1.25820000E+01 1.00000000E-03 1.05820000E+01
  1 4912 1.25820000E+01 1.00000000E-03 1.05820000E+01
  1 4913 1.25820000E+01 1.00000000E-03 1.05820000E+01
  1 4914 1.25820000E+01 1.00000000E-03 1.05820000E+01
  1 4915 1.25820000E+01 1.00000000E-03 1.05820000E+01
  1 4916 1.25820000E+01 1.00000000E-03 1.05820000E+01
  1 4917 1.25820000E+01 1.00000000E-03 1.05820000E+01
  1 4918 1.25820000E+01 1.00000000E-03 1.05820000E+01
  1 4919 1.25820000E+01 1.00000000E-03 1.05820000E+01
  1 4920 1.25820000E+01 1.00000000E-03 1.05820000E+01
  1 4921 1.25820000E+01 1.00000000E-03 1.05820000E+01
  1 4922 1.25820000E+01 1.00000000E-03 1.05820000E+01
  1 4923 1.25820000E+01 1.00000000E-03 1.05820000E+01
  1 4924 1.25820000E+01 1.00000000E-03 1.05820000E+01
  1 4925 1.25820000E+01 1.00000000E-03 1.05820000E+01
  1 4926 1.25820000E+01 1.00000000E-03 1.05820000E+01
  1 4927 1.25820000E+01 1.00000000E-03 1.05820000E+01
  1 4928 1.25820000E+01 1.00000000E-03 1.05820000E+01
  1 4929 1.25820000E+01 1.00000000E-03 1.05820000E+01
  1 4930 1.25820000E+01 1.00000000E-03 1.05820000E+01
  1 4931 1.25820000E+01 1.00000000E-03 1.05820000E+01
  1 4932 1.25820000E+01 1.00000000E-03 1.05820000E+01
  1 4933 1.25820000E+01 1.00000000E-03 1.05820000E+01
  1 4934 1.25820000E+01 1.00000000E-03 1.05820000E+01
  1 4935 1.25820000E+01 1.00000000E-03 1.05820000E+01
  1 4936 1.25820000E+01 1.00000000E-03 1.05820000E+01
  1 4937 1.25820000E+01 1.00000000E-03 1.05820000E+01
  1 4938 1.25820000E+01 1.00000000E-03 1.05820000E+01
  1 4939 1.25820000E+01 1.00000000E-03 1.05820000E+01
  1 4940 1.25820000E+01 1.00000000E-03 1.05820000E+01
  1 4941 1.25820000E+01 1.00000000E-03 1.05820000E+01
  1 4942 1.25820000E+01 1.00000000E-03 1.05820000E+01
  1 4943 1.25820000E+01 1.00000000E-03 1.05820000E+01
  1 4944 1.25820000E+01 1.00000000E-03 1.05820000E+01
  1 4945 1.25820000E+01 1.00000000E-03 1.05820000E+01
  1 4946 1.25820000E+01 1.00000000E-03 1.05820000E+01
  1 4947 1.25820000E+01 1.00000000E-03 1.05820000E+01
  1 4948 1.25820000E+01 1.00000000E-03 1.05820000E+01
  1 4949 1.25820000E+01 1.00000000E-03 1.05820000E+01
  1 4950 1.25820000E+01 1.00000000E-03 1.05820000E+01
  1 4951 1.25820000E+01 1.00000000E-03 1.05820000E+01
  1 4952 1.25820000E+01 1.00000000E-03 1.05820000E+01
  1 4953 1.25820000E+01 1.00000000E-03 1.05820000E+01
  1 4954 1.25820000E+01 1.00000000E-03 1.05820000E+01
  1 4955 1.25820000E+01 1.00000000E-03 1.05820000E+01
  1 4956 1.25820000E+01 1.00000000E-03 1.05820000E+01
  1 4957 1.25820000E+01 1.00000000E-03 1.05820000E+01
  1 4958 1.25820000E+01 1.00000000E-03 1.05820000E+01
  1 4959 1.25820000E+01 1.00000000E-03 1.05820000E+01
  1 4960 1.25820000E+01 1.00000000E-03 1.05820000E+01
  1 4961 1.25820000E+01 1.00000000E-03 1.05820000E+01
  1 4962 1.25820000E+01 1.00000000E-03 1.05820000E+01
  1 4963 1.25820000E+01 1.00000000E-03 1.05820000E+01
  1 4964 1.25820000E+01 1.00000000E-03 1.05820000E+01
  1 4965 1.25820000E+01 1.00000000E-03 1.05820000E+01
  1 4966 1.25820000E+01 1.00000000E-03 1.05820000E+01
  1 4967 1.25820000E+01 1.00000000E-03 1.05820000E+01
  1 4968 1.25820000E+01 1.00000000E-03 1.05820000E+01
  1 4969 1.25820000E+01 1.00000000E-03 1.05820000E+01
  1 4970 1.25820000E+01 1.00000000E-03 1.05820000E+01
  1 4971 1.25820000E+01 1.00000000E-03 1.05820000E+01
  1 4972 1.25820000E+01 1.00000000E-03 1.05820000E+01
  1 4973 1.25820000E+01 1.00000000E-03 1.05820000E+01
  1 4974 1.25820000E+01 1.00000000E-03 1.05820000E+01
  1 4975 1.25820000E+01 1.00000000E-03 1.05820000E+01
  1 4976 1.25820000E+01 1.00000000E-03 1.05820000E+01
  1 4977 1.25820000E+01 1.00000000E-03 1.05820000E+01
  1 4978 1.25820000E+01 1.00000000E-03 1.05820000E+01
  1 4979 1.25820000E+01 1.00000000E-03 1.05820000E+01
  1 4980 1.25820000E+01 1.00000000E-03 1.05820000E+01
  1 4981 1.25820000E+01 1.00000000E-03 1.05820000E+01
  1 4982 1.25820000E+01 1.00000000E-03 1.05820000E+01
  1 4983 1.25820000E+01 1.00000000E-03 1.05820000E+01
  1 4984 1.25820000E+01 1.00000000E-03 1.05820000E+01
  1 4985 1.25820000E+01 1.00000000E-03 1.05820000E+01
  1 4986 1.25820000E+01 1.00000000E-03 1.05820000E+01
  1 4987 1.25820000E+01 1.00000000E-03 1.05820000E+01
  1 4988 1.25820000E+01 1.00000000E-03 1.05820000E+01
  1 4989 1.25820000E+01 1.00000000E-03 1.05820000E+01
  1 4990 1.25820000E+01 1.00000000E-03 1.05820000E+01
  1 4991 1.25820000E+01 1.00000000E-03 1.05820000E+01
  1 4992 1.25820000E+01 1.00000000E-03 1.05820000E+01
  1 4993 1.25820000E+01 1.00000000E-03 1.05820000E+01
  1 4994 1.25820000E+01 1.00000000E-03 1.05820000E+01
  1 4995 1.25820000E+01 1.00000000E-03 1.05820000E+01
  1 4996 1.25820000E+01 1.00000000E-03 1.05820000E+01
  1 4997 1.25820000E+01 1.00000000E-03 1.05820000E+01
  1 4998 1.25820000E+01 1.00000000E-03 1.05820000E+01
  1 4999 1.25820000E+01 1.00000000E-03 1.05820000E+01
  1 5000 1.25820000E+01 1.00000000E-03 1.05820000E+01
END period  1

