# File generated by Flopy version 3.6.0 on 05/28/2024 at 09:56:42.
BEGIN options
END options

BEGIN dimensions
  MAXBOUND  7355
END dimensions

BEGIN period  1
  1 1 1.74119411E-08
  1 2 1.76368190E-08
  1 3 1.77259080E-08
  1 4 1.74393262E-08
  1 5 1.72975096E-08
  1 6 1.73080722E-08
  1 7 1.74921244E-08
  1 8 1.83438702E-08
  1 9 1.85322240E-08
  1 10 1.83613023E-08
  1 11 1.78686592E-08
  1 12 1.73325527E-08
  1 13 1.67864178E-08
  1 14 1.66176162E-08
  1 15 1.65130786E-08
  1 16 1.60017921E-08
  1 17 1.61459619E-08
  1 18 1.65819699E-08
  1 19 1.62596482E-08
  1 20 1.64843493E-08
  1 21 1.62589465E-08
  1 22 1.55683913E-08
  1 23 1.51328357E-08
  1 24 1.52737172E-08
  1 25 1.52910634E-08
  1 26 1.55520846E-08
  1 27 1.62792020E-08
  1 28 1.64055563E-08
  1 29 1.58510977E-08
  1 30 1.52667801E-08
  1 31 1.49343099E-08
  1 32 1.49627036E-08
  1 33 1.53876044E-08
  1 34 1.58645681E-08
  1 35 1.53714564E-08
  1 36 1.41703509E-08
  1 37 1.31686886E-08
  1 38 1.26193872E-08
  1 39 1.27225243E-08
  1 40 1.24334882E-08
  1 41 1.24054368E-08
  1 42 1.21303842E-08
  1 43 1.22116202E-08
  1 44 1.20711595E-08
  1 45 1.23228639E-08
  1 46 1.23349066E-08
  1 47 1.24418664E-08
  1 48 1.23543761E-08
  1 49 1.25238725E-08
  1 50 1.27295863E-08
  1 51 1.34405491E-08
  1 52 1.45592928E-08
  1 53 1.57464701E-08
  1 54 1.66752105E-08
  1 55 1.71128818E-08
  1 56 1.70374473E-08
  1 57 1.67076031E-08
  1 58 1.63275804E-08
  1 59 1.57865929E-08
  1 60 1.53570769E-08
  1 61 1.53144604E-08
  1 62 1.56336633E-08
  1 63 1.54471136E-08
  1 64 1.53557472E-08
  1 65 1.55933817E-08
  1 66 1.67339277E-08
  1 67 1.71806661E-08
  1 68 1.74567770E-08
  1 69 1.79631148E-08
  1 70 1.80567040E-08
  1 71 1.86865811E-08
  1 72 1.95091596E-08
  1 73 1.98804014E-08
  1 74 1.96431091E-08
  1 75 1.84571681E-08
  1 76 1.74544400E-08
  1 77 1.63648345E-08
  1 78 1.46599841E-08
  1 79 1.36529543E-08
  1 80 1.32973641E-08
  1 81 1.30590843E-08
  1 82 1.23715628E-08
  1 83 1.18072772E-08
  1 84 1.17202817E-08
  1 85 1.16001985E-08
  1 86 1.19338556E-08
  1 87 1.18547398E-08
  1 88 1.18000526E-08
  1 89 1.14602901E-08
  1 90 1.08221670E-08
  1 91 1.06399856E-08
  1 92 1.07714613E-08
  1 93 1.09757115E-08
  1 94 1.10452148E-08
  1 95 1.15575587E-08
  1 96 1.23118987E-08
  1 97 1.32887329E-08
  1 98 1.43885686E-08
  1 99 1.47236516E-08
  1 100 1.44008002E-08
  1 101 1.70784374E-08
  1 102 1.68642357E-08
  1 103 1.71513833E-08
  1 104 1.74825057E-08
  1 105 1.83192724E-08
  1 106 1.90329016E-08
  1 107 1.84033710E-08
  1 108 1.77442786E-08
  1 109 1.68993867E-08
  1 110 1.61424410E-08
  1 111 1.58139813E-08
  1 112 1.59041835E-08
  1 113 1.55539509E-08
  1 114 1.54938188E-08
  1 115 1.57156299E-08
  1 116 1.54270248E-08
  1 117 1.54156413E-08
  1 118 1.55705228E-08
  1 119 1.56037563E-08
  1 120 1.58328244E-08
  1 121 1.59749810E-08
  1 122 1.59784404E-08
  1 123 1.60018861E-08
  1 124 1.63905833E-08
  1 125 1.62415593E-08
  1 126 1.53587694E-08
  1 127 1.44234615E-08
  1 128 1.40782840E-08
  1 129 1.44781571E-08
  1 130 1.50724047E-08
  1 131 1.53402790E-08
  1 132 1.49627353E-08
  1 133 1.41115763E-08
  1 134 1.32829360E-08
  1 135 1.29047228E-08
  1 136 1.28101003E-08
  1 137 1.26196131E-08
  1 138 1.25178821E-08
  1 139 1.25976510E-08
  1 140 1.23995551E-08
  1 141 1.21901251E-08
  1 142 1.22548126E-08
  1 143 1.24081612E-08
  1 144 1.24897962E-08
  1 145 1.28171363E-08
  1 146 1.25947085E-08
  1 147 1.29505230E-08
  1 148 1.33672828E-08
  1 149 1.44195185E-08
  1 150 1.53679298E-08
  1 151 1.60156662E-08
  1 152 1.68959655E-08
  1 153 1.74308747E-08
  1 154 1.69527356E-08
  1 155 1.61458441E-08
  1 156 1.59824043E-08
  1 157 1.59760706E-08
  1 158 1.56563589E-08
  1 159 1.59810150E-08
  1 160 1.61740197E-08
  1 161 1.61581340E-08
  1 162 1.61637824E-08
  1 163 1.66363290E-08
  1 164 1.73043306E-08
  1 165 1.81165978E-08
  1 166 1.85282237E-08
  1 167 1.81550242E-08
  1 168 1.90431372E-08
  1 169 1.97796106E-08
  1 170 1.93330464E-08
  1 171 1.90283993E-08
  1 172 1.83048459E-08
  1 173 1.77633726E-08
  1 174 1.67014510E-08
  1 175 1.50915148E-08
  1 176 1.38709273E-08
  1 177 1.31447268E-08
  1 178 1.25334412E-08
  1 179 1.19555823E-08
  1 180 1.16707488E-08
  1 181 1.15473548E-08
  1 182 1.14865153E-08
  1 183 1.14353783E-08
  1 184 1.13268174E-08
  1 185 1.12319392E-08
  1 186 1.12680473E-08
  1 187 1.08847664E-08
  1 188 1.07493743E-08
  1 189 1.10251440E-08
  1 190 1.12409875E-08
  1 191 1.13765126E-08
  1 192 1.18310437E-08
  1 193 1.25948889E-08
  1 194 1.34668830E-08
  1 195 1.42997447E-08
  1 196 1.47459350E-08
  1 197 1.45724703E-08
  1 198 1.41589449E-08
  1 199 1.31252962E-08
  1 200 1.26734380E-08
  1 201 1.68960748E-08
  1 202 1.79039663E-08
  1 203 1.88147465E-08
  1 204 1.84916509E-08
  1 205 1.75106999E-08
  1 206 1.66416408E-08
  1 207 1.57918711E-08
  1 208 1.55086289E-08
  1 209 1.51707462E-08
  1 210 1.50483506E-08
  1 211 1.52648646E-08
  1 212 1.52272242E-08
  1 213 1.46072698E-08
  1 214 1.43723124E-08
  1 215 1.46690281E-08
  1 216 1.51198692E-08
  1 217 1.58932437E-08
  1 218 1.62317687E-08
  1 219 1.58990309E-08
  1 220 1.56325657E-08
  1 221 1.58336310E-08
  1 222 1.57199438E-08
  1 223 1.50995878E-08
  1 224 1.42775386E-08
  1 225 1.38560985E-08
  1 226 1.39940556E-08
  1 227 1.45001774E-08
  1 228 1.44164099E-08
  1 229 1.44803617E-08
  1 230 1.40140166E-08
  1 231 1.33640562E-08
  1 232 1.29076746E-08
  1 233 1.27684511E-08
  1 234 1.25746046E-08
  1 235 1.28632893E-08
  1 236 1.24506315E-08
  1 237 1.21704537E-08
  1 238 1.18386248E-08
  1 239 1.18898278E-08
  1 240 1.20096812E-08
  1 241 1.22195031E-08
  1 242 1.26154348E-08
  1 243 1.29084946E-08
  1 244 1.32215362E-08
  1 245 1.34983410E-08
  1 246 1.40310012E-08
  1 247 1.48666872E-08
  1 248 1.54058034E-08
  1 249 1.64132529E-08
  1 250 1.71566815E-08
  1 251 1.68001923E-08
  1 252 1.64118017E-08
  1 253 1.63891888E-08
  1 254 1.65726078E-08
  1 255 1.63112363E-08
  1 256 1.63704230E-08
  1 257 1.69755314E-08
  1 258 1.73201014E-08
  1 259 1.74123061E-08
  1 260 1.72201938E-08
  1 261 1.75767688E-08
  1 262 1.81939363E-08
  1 263 1.82867378E-08
  1 264 1.82320143E-08
  1 265 1.87412711E-08
  1 266 1.91245811E-08
  1 267 1.88076071E-08
  1 268 1.84962296E-08
  1 269 1.80506041E-08
  1 270 1.73451856E-08
  1 271 1.67347519E-08
  1 272 1.56342491E-08
  1 273 1.45200700E-08
  1 274 1.37652966E-08
  1 275 1.27862557E-08
  1 276 1.19415121E-08
  1 277 1.15602742E-08
  1 278 1.13181404E-08
  1 279 1.11119018E-08
  1 280 1.10359758E-08
  1 281 1.11832292E-08
  1 282 1.12902029E-08
  1 283 1.10924230E-08
  1 284 1.09644890E-08
  1 285 1.10660085E-08
  1 286 1.13637928E-08
  1 287 1.17525842E-08
  1 288 1.21140287E-08
  1 289 1.24842551E-08
  1 290 1.31693568E-08
  1 291 1.41598389E-08
  1 292 1.45405554E-08
  1 293 1.48697591E-08
  1 294 1.47692818E-08
  1 295 1.44559988E-08
  1 296 1.37369702E-08
  1 297 1.30835023E-08
  1 298 1.33034349E-08
  1 299 1.36219460E-08
  1 300 1.45684565E-08
  1 301 1.77264322E-08
  1 302 1.69105475E-08
  1 303 1.62748167E-08
  1 304 1.60641661E-08
  1 305 1.57990667E-08
  1 306 1.51384930E-08
  1 307 1.47147766E-08
  1 308 1.50763463E-08
  1 309 1.48825821E-08
  1 310 1.41709227E-08
  1 311 1.39514196E-08
  1 312 1.41085394E-08
  1 313 1.45601131E-08
  1 314 1.51718819E-08
  1 315 1.58214555E-08
  1 316 1.56119400E-08
  1 317 1.53681433E-08
  1 318 1.54293031E-08
  1 319 1.51369347E-08
  1 320 1.49435214E-08
  1 321 1.47211630E-08
  1 322 1.41647698E-08
  1 323 1.38527882E-08
  1 324 1.39399226E-08
  1 325 1.44169965E-08
  1 326 1.46599803E-08
  1 327 1.41889197E-08
  1 328 1.33931124E-08
  1 329 1.31454118E-08
  1 330 1.29628497E-08
  1 331 1.30027849E-08
  1 332 1.29055467E-08
  1 333 1.23358459E-08
  1 334 1.19298862E-08
  1 335 1.14849564E-08
  1 336 1.12884539E-08
  1 337 1.16613232E-08
  1 338 1.18892678E-08
  1 339 1.22663347E-08
  1 340 1.29187265E-08
  1 341 1.36386889E-08
  1 342 1.39648977E-08
  1 343 1.45560597E-08
  1 344 1.49402340E-08
  1 345 1.53894611E-08
  1 346 1.59072372E-08
  1 347 1.68114286E-08
  1 348 1.72260746E-08
  1 349 1.70067748E-08
  1 350 1.67607581E-08
  1 351 1.69323419E-08
  1 352 1.68908619E-08
  1 353 1.72199055E-08
  1 354 1.80752631E-08
  1 355 1.87352717E-08
  1 356 1.89648456E-08
  1 357 1.85001870E-08
  1 358 1.85115844E-08
  1 359 1.89295746E-08
  1 360 1.86603948E-08
  1 361 1.82478485E-08
  1 362 1.80739820E-08
  1 363 1.78157015E-08
  1 364 1.78565141E-08
  1 365 1.77818659E-08
  1 366 1.71811465E-08
  1 367 1.66387581E-08
  1 368 1.64228904E-08
  1 369 1.60492181E-08
  1 370 1.47856198E-08
  1 371 1.39908651E-08
  1 372 1.30978838E-08
  1 373 1.23611659E-08
  1 374 1.17079586E-08
  1 375 1.12820368E-08
  1 376 1.09667719E-08
  1 377 1.11730761E-08
  1 378 1.14661520E-08
  1 379 1.15635957E-08
  1 380 1.12073208E-08
  1 381 1.12167589E-08
  1 382 1.14708763E-08
  1 383 1.19021216E-08
  1 384 1.24748918E-08
  1 385 1.28018612E-08
  1 386 1.30928054E-08
  1 387 1.37589065E-08
  1 388 1.46817595E-08
  1 389 1.50445496E-08
  1 390 1.51276318E-08
  1 391 1.47933791E-08
  1 392 1.45016284E-08
  1 393 1.42324194E-08
  1 394 1.39770511E-08
  1 395 1.42333685E-08
  1 396 1.43024424E-08
  1 397 1.46211558E-08
  1 398 1.50060828E-08
  1 399 1.55375614E-08
  1 400 1.60143505E-08
  1 401 1.59798146E-08
  1 402 1.57533158E-08
  1 403 1.53332356E-08
  1 404 1.51469937E-08
  1 405 1.49084073E-08
  1 406 1.46976961E-08
  1 407 1.39809744E-08
  1 408 1.36577108E-08
  1 409 1.37944965E-08
  1 410 1.41809333E-08
  1 411 1.45079225E-08
  1 412 1.49463197E-08
  1 413 1.48508314E-08
  1 414 1.48632508E-08
  1 415 1.49300544E-08
  1 416 1.49848663E-08
  1 417 1.49276708E-08
  1 418 1.50432990E-08
  1 419 1.43194905E-08
  1 420 1.37855023E-08
  1 421 1.36567599E-08
  1 422 1.44865518E-08
  1 423 1.48886677E-08
  1 424 1.48385834E-08
  1 425 1.42369082E-08
  1 426 1.42248781E-08
  1 427 1.36290737E-08
  1 428 1.32996392E-08
  1 429 1.30169271E-08
  1 430 1.25041439E-08
  1 431 1.19369675E-08
  1 432 1.10808432E-08
  1 433 1.09756340E-08
  1 434 1.15386361E-08
  1 435 1.20726327E-08
  1 436 1.21876420E-08
  1 437 1.28244043E-08
  1 438 1.35499144E-08
  1 439 1.40973208E-08
  1 440 1.45218416E-08
  1 441 1.49078318E-08
  1 442 1.50799716E-08
  1 443 1.53412755E-08
  1 444 1.63851536E-08
  1 445 1.71665252E-08
  1 446 1.69370611E-08
  1 447 1.67058056E-08
  1 448 1.70082099E-08
  1 449 1.72058420E-08
  1 450 1.79001471E-08
  1 451 1.85352320E-08
  1 452 1.95613364E-08
  1 453 1.98567284E-08
  1 454 1.98419358E-08
  1 455 1.95987924E-08
  1 456 1.94771576E-08
  1 457 1.88908443E-08
  1 458 1.83090436E-08
  1 459 1.79286464E-08
  1 460 1.73561828E-08
  1 461 1.69805119E-08
  1 462 1.67218868E-08
  1 463 1.60099890E-08
  1 464 1.56030327E-08
  1 465 1.56322008E-08
  1 466 1.58318264E-08
  1 467 1.48325370E-08
  1 468 1.37978869E-08
  1 469 1.31465842E-08
  1 470 1.22513778E-08
  1 471 1.17131911E-08
  1 472 1.14855303E-08
  1 473 1.15639118E-08
  1 474 1.18595066E-08
  1 475 1.21455411E-08
  1 476 1.18585397E-08
  1 477 1.13212932E-08
  1 478 1.10353730E-08
  1 479 1.14633693E-08
  1 480 1.22107477E-08
  1 481 1.27773587E-08
  1 482 1.31774156E-08
  1 483 1.38941308E-08
  1 484 1.43634893E-08
  1 485 1.51705788E-08
  1 486 1.53392290E-08
  1 487 1.53715604E-08
  1 488 1.52207872E-08
  1 489 1.52833214E-08
  1 490 1.50125543E-08
  1 491 1.48982097E-08
  1 492 1.49950627E-08
  1 493 1.45109823E-08
  1 494 1.46201638E-08
  1 495 1.48601456E-08
  1 496 1.54252036E-08
  1 497 1.57826176E-08
  1 498 1.57509191E-08
  1 499 1.57180411E-08
  1 500 1.64917616E-08
  1 501 1.54095775E-08
  1 502 1.52043153E-08
  1 503 1.47968748E-08
  1 504 1.41983425E-08
  1 505 1.33504747E-08
  1 506 1.35492740E-08
  1 507 1.38370260E-08
  1 508 1.37755295E-08
  1 509 1.38675014E-08
  1 510 1.42037970E-08
  1 511 1.43977502E-08
  1 512 1.43423681E-08
  1 513 1.45902146E-08
  1 514 1.49077714E-08
  1 515 1.48686045E-08
  1 516 1.43687952E-08
  1 517 1.39579732E-08
  1 518 1.40505866E-08
  1 519 1.46052871E-08
  1 520 1.52305219E-08
  1 521 1.55162831E-08
  1 522 1.55018559E-08
  1 523 1.52836519E-08
  1 524 1.46980011E-08
  1 525 1.40743886E-08
  1 526 1.37397715E-08
  1 527 1.30534995E-08
  1 528 1.20991864E-08
  1 529 1.13478847E-08
  1 530 1.12177274E-08
  1 531 1.17216542E-08
  1 532 1.21151745E-08
  1 533 1.22220380E-08
  1 534 1.26421569E-08
  1 535 1.33431086E-08
  1 536 1.37641966E-08
  1 537 1.39435173E-08
  1 538 1.41163336E-08
  1 539 1.46411635E-08
  1 540 1.48485899E-08
  1 541 1.60118789E-08
  1 542 1.64880818E-08
  1 543 1.65650248E-08
  1 544 1.63516323E-08
  1 545 1.69639175E-08
  1 546 1.75465690E-08
  1 547 1.83989667E-08
  1 548 1.90417476E-08
  1 549 1.97123666E-08
  1 550 2.02966747E-08
  1 551 2.05081142E-08
  1 552 2.01849494E-08
  1 553 1.90065225E-08
  1 554 1.85029865E-08
  1 555 1.81074071E-08
  1 556 1.76666251E-08
  1 557 1.72350699E-08
  1 558 1.64477087E-08
  1 559 1.59645457E-08
  1 560 1.53586092E-08
  1 561 1.47834523E-08
  1 562 1.48200194E-08
  1 563 1.47733816E-08
  1 564 1.43524067E-08
  1 565 1.33496600E-08
  1 566 1.28515441E-08
  1 567 1.21951996E-08
  1 568 1.18960374E-08
  1 569 1.19225286E-08
  1 570 1.22619572E-08
  1 571 1.23296147E-08
  1 572 1.21684421E-08
  1 573 1.18115815E-08
  1 574 1.15631500E-08
  1 575 1.14116249E-08
  1 576 1.16229903E-08
  1 577 1.22205446E-08
  1 578 1.28083386E-08
  1 579 1.35954647E-08
  1 580 1.45499880E-08
  1 581 1.49344098E-08
  1 582 1.54828351E-08
  1 583 1.57832556E-08
  1 584 1.58409678E-08
  1 585 1.60477021E-08
  1 586 1.59966951E-08
  1 587 1.57724277E-08
  1 588 1.55189460E-08
  1 589 1.51858988E-08
  1 590 1.48292319E-08
  1 591 1.46211057E-08
  1 592 1.48338258E-08
  1 593 1.50475328E-08
  1 594 1.52681393E-08
  1 595 1.53940432E-08
  1 596 1.56463567E-08
  1 597 1.61081120E-08
  1 598 1.63231753E-08
  1 599 1.62822769E-08
  1 600 1.63741153E-08
  1 601 1.40565975E-08
  1 602 1.34280994E-08
  1 603 1.32355679E-08
  1 604 1.34944924E-08
  1 605 1.33850887E-08
  1 606 1.34755103E-08
  1 607 1.35875427E-08
  1 608 1.36183468E-08
  1 609 1.37895014E-08
  1 610 1.41220768E-08
  1 611 1.44352482E-08
  1 612 1.43556884E-08
  1 613 1.41755036E-08
  1 614 1.41402008E-08
  1 615 1.44871931E-08
  1 616 1.49592880E-08
  1 617 1.56003382E-08
  1 618 1.61625013E-08
  1 619 1.62498876E-08
  1 620 1.62125098E-08
  1 621 1.61423925E-08
  1 622 1.55561288E-08
  1 623 1.47914970E-08
  1 624 1.36377393E-08
  1 625 1.25567526E-08
  1 626 1.22058806E-08
  1 627 1.20335559E-08
  1 628 1.23604307E-08
  1 629 1.28567298E-08
  1 630 1.29371932E-08
  1 631 1.30676119E-08
  1 632 1.32191177E-08
  1 633 1.35032072E-08
  1 634 1.37471102E-08
  1 635 1.38893336E-08
  1 636 1.43866738E-08
  1 637 1.46625728E-08
  1 638 1.54652751E-08
  1 639 1.58125777E-08
  1 640 1.61023470E-08
  1 641 1.66218820E-08
  1 642 1.70798049E-08
  1 643 1.77933804E-08
  1 644 1.81628046E-08
  1 645 1.85380774E-08
  1 646 1.91903622E-08
  1 647 1.99869364E-08
  1 648 2.01745718E-08
  1 649 1.96633437E-08
  1 650 1.86841830E-08
  1 651 1.78895495E-08
  1 652 1.77620648E-08
  1 653 1.72214469E-08
  1 654 1.67937358E-08
  1 655 1.59037821E-08
  1 656 1.52149998E-08
  1 657 1.49262941E-08
  1 658 1.45875066E-08
  1 659 1.45440660E-08
  1 660 1.43722459E-08
  1 661 1.37527681E-08
  1 662 1.30523163E-08
  1 663 1.25937076E-08
  1 664 1.23882402E-08
  1 665 1.19975306E-08
  1 666 1.19962054E-08
  1 667 1.24241612E-08
  1 668 1.23011895E-08
  1 669 1.22856138E-08
  1 670 1.18853515E-08
  1 671 1.17598708E-08
  1 672 1.17288959E-08
  1 673 1.19499619E-08
  1 674 1.23282203E-08
  1 675 1.29811252E-08
  1 676 1.35060302E-08
  1 677 1.42021871E-08
  1 678 1.45161979E-08
  1 679 1.49176675E-08
  1 680 1.55569006E-08
  1 681 1.63544033E-08
  1 682 1.66072384E-08
  1 683 1.62921567E-08
  1 684 1.59621207E-08
  1 685 1.54781421E-08
  1 686 1.50844763E-08
  1 687 1.46274694E-08
  1 688 1.44150229E-08
  1 689 1.44355677E-08
  1 690 1.46934696E-08
  1 691 1.48991359E-08
  1 692 1.51715770E-08
  1 693 1.53765132E-08
  1 694 1.58018271E-08
  1 695 1.55316210E-08
  1 696 1.53228779E-08
  1 697 1.52671646E-08
  1 698 1.54152476E-08
  1 699 1.47228582E-08
  1 700 1.47257414E-08
  1 701 1.31512027E-08
  1 702 1.31121483E-08
  1 703 1.31370853E-08
  1 704 1.31375186E-08
  1 705 1.29680517E-08
  1 706 1.29842139E-08
  1 707 1.32114415E-08
  1 708 1.36794373E-08
  1 709 1.36878688E-08
  1 710 1.39999054E-08
  1 711 1.43987958E-08
  1 712 1.48750101E-08
  1 713 1.50814436E-08
  1 714 1.57522402E-08
  1 715 1.66025179E-08
  1 716 1.74708166E-08
  1 717 1.79284681E-08
  1 718 1.80157395E-08
  1 719 1.72809138E-08
  1 720 1.64943416E-08
  1 721 1.48448152E-08
  1 722 1.36289050E-08
  1 723 1.29120381E-08
  1 724 1.24521277E-08
  1 725 1.25922713E-08
  1 726 1.36736362E-08
  1 727 1.41331281E-08
  1 728 1.41245552E-08
  1 729 1.37081811E-08
  1 730 1.33598934E-08
  1 731 1.36431535E-08
  1 732 1.37761549E-08
  1 733 1.40980913E-08
  1 734 1.48490088E-08
  1 735 1.55566818E-08
  1 736 1.56445811E-08
  1 737 1.58613793E-08
  1 738 1.66964363E-08
  1 739 1.71304422E-08
  1 740 1.79483252E-08
  1 741 1.85640075E-08
  1 742 1.82323358E-08
  1 743 1.83225319E-08
  1 744 1.90154922E-08
  1 745 1.90706830E-08
  1 746 1.86997239E-08
  1 747 1.82210914E-08
  1 748 1.74507984E-08
  1 749 1.72234506E-08
  1 750 1.66509566E-08
  1 751 1.58590804E-08
  1 752 1.55998552E-08
  1 753 1.48495171E-08
  1 754 1.48963084E-08
  1 755 1.48250844E-08
  1 756 1.44661094E-08
  1 757 1.40517382E-08
  1 758 1.35986191E-08
  1 759 1.32401961E-08
  1 760 1.27271471E-08
  1 761 1.24225100E-08
  1 762 1.21530964E-08
  1 763 1.20531159E-08
  1 764 1.23761473E-08
  1 765 1.22763522E-08
  1 766 1.21862601E-08
  1 767 1.24981295E-08
  1 768 1.25216066E-08
  1 769 1.23487054E-08
  1 770 1.21354274E-08
  1 771 1.23111763E-08
  1 772 1.26309035E-08
  1 773 1.31648464E-08
  1 774 1.36513653E-08
  1 775 1.41544273E-08
  1 776 1.45383736E-08
  1 777 1.53077660E-08
  1 778 1.60481998E-08
  1 779 1.65603756E-08
  1 780 1.61659520E-08
  1 781 1.61542412E-08
  1 782 1.55516307E-08
  1 783 1.55006837E-08
  1 784 1.47529878E-08
  1 785 1.43854005E-08
  1 786 1.43555280E-08
  1 787 1.43985410E-08
  1 788 1.48723223E-08
  1 789 1.50832634E-08
  1 790 1.54624904E-08
  1 791 1.56952097E-08
  1 792 1.53145431E-08
  1 793 1.46185105E-08
  1 794 1.45161166E-08
  1 795 1.46931777E-08
  1 796 1.42668164E-08
  1 797 1.42609893E-08
  1 798 1.43028803E-08
  1 799 1.43369486E-08
  1 800 1.48121250E-08
  1 801 1.25110458E-08
  1 802 1.25595158E-08
  1 803 1.23636382E-08
  1 804 1.25824380E-08
  1 805 1.29448839E-08
  1 806 1.35963921E-08
  1 807 1.42340252E-08
  1 808 1.48676926E-08
  1 809 1.52177807E-08
  1 810 1.57533662E-08
  1 811 1.60740439E-08
  1 812 1.68062276E-08
  1 813 1.76605312E-08
  1 814 1.89158159E-08
  1 815 1.93366578E-08
  1 816 1.88286966E-08
  1 817 1.76579119E-08
  1 818 1.57475452E-08
  1 819 1.42635627E-08
  1 820 1.33195836E-08
  1 821 1.28664768E-08
  1 822 1.30226309E-08
  1 823 1.36653405E-08
  1 824 1.46078922E-08
  1 825 1.49130476E-08
  1 826 1.48449790E-08
  1 827 1.43515315E-08
  1 828 1.42062395E-08
  1 829 1.43591688E-08
  1 830 1.42153173E-08
  1 831 1.51090715E-08
  1 832 1.56920809E-08
  1 833 1.61029632E-08
  1 834 1.62426605E-08
  1 835 1.65855539E-08
  1 836 1.70391575E-08
  1 837 1.78137089E-08
  1 838 1.87152538E-08
  1 839 1.85134439E-08
  1 840 1.79347842E-08
  1 841 1.77744049E-08
  1 842 1.77272769E-08
  1 843 1.77362038E-08
  1 844 1.72166021E-08
  1 845 1.66340322E-08
  1 846 1.60749604E-08
  1 847 1.53711245E-08
  1 848 1.49730935E-08
  1 849 1.50692817E-08
  1 850 1.45796343E-08
  1 851 1.45449577E-08
  1 852 1.46205671E-08
  1 853 1.44248497E-08
  1 854 1.39836641E-08
  1 855 1.34522697E-08
  1 856 1.35367522E-08
  1 857 1.33601810E-08
  1 858 1.30339451E-08
  1 859 1.26678789E-08
  1 860 1.23472667E-08
  1 861 1.23346050E-08
  1 862 1.24186459E-08
  1 863 1.23763867E-08
  1 864 1.30233107E-08
  1 865 1.33606017E-08
  1 866 1.32731210E-08
  1 867 1.27838077E-08
  1 868 1.26751172E-08
  1 869 1.27970712E-08
  1 870 1.29592123E-08
  1 871 1.32402468E-08
  1 872 1.35370655E-08
  1 873 1.44313109E-08
  1 874 1.50825691E-08
  1 875 1.57624684E-08
  1 876 1.63460696E-08
  1 877 1.61295617E-08
  1 878 1.60145910E-08
  1 879 1.55802422E-08
  1 880 1.54453080E-08
  1 881 1.49821581E-08
  1 882 1.43743071E-08
  1 883 1.45931840E-08
  1 884 1.43343890E-08
  1 885 1.46413563E-08
  1 886 1.50185713E-08
  1 887 1.55418294E-08
  1 888 1.55635052E-08
  1 889 1.51888377E-08
  1 890 1.47559075E-08
  1 891 1.47410768E-08
  1 892 1.46386954E-08
  1 893 1.43400227E-08
  1 894 1.45719062E-08
  1 895 1.45292094E-08
  1 896 1.44344985E-08
  1 897 1.45671590E-08
  1 898 1.46778821E-08
  1 899 1.49765995E-08
  1 900 1.56418901E-08
  1 901 1.22302943E-08
  1 902 1.29398119E-08
  1 903 1.41029536E-08
  1 904 1.51909240E-08
  1 905 1.56395355E-08
  1 906 1.60739916E-08
  1 907 1.62944254E-08
  1 908 1.66477073E-08
  1 909 1.68936877E-08
  1 910 1.74830328E-08
  1 911 1.83696795E-08
  1 912 1.93440259E-08
  1 913 1.88486336E-08
  1 914 1.78309472E-08
  1 915 1.62374584E-08
  1 916 1.50157632E-08
  1 917 1.37942515E-08
  1 918 1.31569875E-08
  1 919 1.31710137E-08
  1 920 1.34249184E-08
  1 921 1.44017501E-08
  1 922 1.52385492E-08
  1 923 1.53210759E-08
  1 924 1.53679895E-08
  1 925 1.51701402E-08
  1 926 1.54865416E-08
  1 927 1.51939110E-08
  1 928 1.55323080E-08
  1 929 1.59804209E-08
  1 930 1.63568241E-08
  1 931 1.65677389E-08
  1 932 1.65113899E-08
  1 933 1.67267470E-08
  1 934 1.74936590E-08
  1 935 1.78908869E-08
  1 936 1.79706144E-08
  1 937 1.72739985E-08
  1 938 1.69129827E-08
  1 939 1.65058749E-08
  1 940 1.63913118E-08
  1 941 1.61467477E-08
  1 942 1.57745043E-08
  1 943 1.49136917E-08
  1 944 1.39615142E-08
  1 945 1.40611091E-08
  1 946 1.42307266E-08
  1 947 1.40883471E-08
  1 948 1.43029366E-08
  1 949 1.45926387E-08
  1 950 1.47590532E-08
  1 951 1.41873195E-08
  1 952 1.39795585E-08
  1 953 1.38789698E-08
  1 954 1.39085124E-08
  1 955 1.35179440E-08
  1 956 1.31795317E-08
  1 957 1.31830516E-08
  1 958 1.30619818E-08
  1 959 1.31330637E-08
  1 960 1.31672714E-08
  1 961 1.31876344E-08
  1 962 1.37728595E-08
  1 963 1.38745397E-08
  1 964 1.34958303E-08
  1 965 1.26949496E-08
  1 966 1.23883215E-08
  1 967 1.26463613E-08
  1 968 1.30305397E-08
  1 969 1.34128574E-08
  1 970 1.40899269E-08
  1 971 1.45443544E-08
  1 972 1.52245057E-08
  1 973 1.60230644E-08
  1 974 1.58683528E-08
  1 975 1.55087837E-08
  1 976 1.51322771E-08
  1 977 1.49339705E-08
  1 978 1.44527136E-08
  1 979 1.42237037E-08
  1 980 1.42261519E-08
  1 981 1.42242798E-08
  1 982 1.41949883E-08
  1 983 1.48130844E-08
  1 984 1.52956942E-08
  1 985 1.52447661E-08
  1 986 1.48306804E-08
  1 987 1.47978765E-08
  1 988 1.51381628E-08
  1 989 1.52366994E-08
  1 990 1.47954751E-08
  1 991 1.45678377E-08
  1 992 1.44937376E-08
  1 993 1.43869377E-08
  1 994 1.45055281E-08
  1 995 1.48174702E-08
  1 996 1.50134080E-08
  1 997 1.53954989E-08
  1 998 1.54348009E-08
  1 999 1.53669755E-08
  1 1000 1.57455033E-08
  1 1001 1.59044875E-08
  1 1002 1.67708130E-08
  1 1003 1.69251890E-08
  1 1004 1.66727299E-08
  1 1005 1.68280517E-08
  1 1006 1.68068552E-08
  1 1007 1.71985332E-08
  1 1008 1.78431216E-08
  1 1009 1.87592506E-08
  1 1010 1.88281654E-08
  1 1011 1.78444600E-08
  1 1012 1.65582375E-08
  1 1013 1.57036607E-08
  1 1014 1.46479314E-08
  1 1015 1.37352068E-08
  1 1016 1.33888332E-08
  1 1017 1.37029300E-08
  1 1018 1.48658994E-08
  1 1019 1.55023319E-08
  1 1020 1.54652814E-08
  1 1021 1.54652814E-08
  1 1022 1.54652814E-08
  1 1023 1.54652814E-08
  1 1024 1.61379502E-08
  1 1025 1.62046813E-08
  1 1026 1.64433432E-08
  1 1027 1.64356512E-08
  1 1028 1.61020158E-08
  1 1029 1.64962475E-08
  1 1030 1.66336028E-08
  1 1031 1.68596418E-08
  1 1032 1.66936983E-08
  1 1033 1.65455966E-08
  1 1034 1.68233042E-08
  1 1035 1.71076043E-08
  1 1036 1.70112599E-08
  1 1037 1.66409556E-08
  1 1038 1.63359233E-08
  1 1039 1.60197299E-08
  1 1040 1.56793376E-08
  1 1041 1.57636890E-08
  1 1042 1.53708465E-08
  1 1043 1.44434663E-08
  1 1044 1.33593108E-08
  1 1045 1.34688177E-08
  1 1046 1.35877978E-08
  1 1047 1.37685759E-08
  1 1048 1.40966659E-08
  1 1049 1.47969920E-08
  1 1050 1.50222650E-08
  1 1051 1.48121556E-08
  1 1052 1.48151864E-08
  1 1053 1.46878936E-08
  1 1054 1.45243869E-08
  1 1055 1.43741016E-08
  1 1056 1.40627448E-08
  1 1057 1.43130255E-08
  1 1058 1.41265122E-08
  1 1059 1.41635040E-08
  1 1060 1.40154992E-08
  1 1061 1.39014879E-08
  1 1062 1.41499356E-08
  1 1063 1.41024730E-08
  1 1064 1.41024730E-08
  1 1065 1.41024730E-08
  1 1066 1.41024730E-08
  1 1067 1.34973763E-08
  1 1068 1.28858411E-08
  1 1069 1.26789617E-08
  1 1070 1.30255313E-08
  1 1071 1.31432295E-08
  1 1072 1.35721316E-08
  1 1073 1.40024571E-08
  1 1074 1.44411939E-08
  1 1075 1.49303630E-08
  1 1076 1.52765319E-08
  1 1077 1.51161055E-08
  1 1078 1.47883199E-08
  1 1079 1.46148040E-08
  1 1080 1.45043736E-08
  1 1081 1.43137566E-08
  1 1082 1.39207679E-08
  1 1083 1.36542064E-08
  1 1084 1.34234796E-08
  1 1085 1.35204740E-08
  1 1086 1.40138855E-08
  1 1087 1.49043513E-08
  1 1088 1.53386061E-08
  1 1089 1.52889898E-08
  1 1090 1.52346894E-08
  1 1091 1.57338122E-08
  1 1092 1.59474883E-08
  1 1093 1.55553505E-08
  1 1094 1.47630279E-08
  1 1095 1.43005232E-08
  1 1096 1.42269148E-08
  1 1097 1.43528980E-08
  1 1098 1.44749007E-08
  1 1099 1.44572695E-08
  1 1100 1.48445929E-08
  1 1101 1.51395782E-08
  1 1102 1.52076426E-08
  1 1103 1.52146247E-08
  1 1104 1.52782826E-08
  1 1105 1.49817264E-08
  1 1106 1.49664060E-08
  1 1107 1.68906868E-08
  1 1108 1.69231622E-08
  1 1109 1.70594161E-08
  1 1110 1.74067690E-08
  1 1111 1.74556355E-08
  1 1112 1.73961561E-08
  1 1113 1.77495175E-08
  1 1114 1.73930486E-08
  1 1115 1.64659442E-08
  1 1116 1.60902767E-08
  1 1117 1.53003401E-08
  1 1118 1.46470463E-08
  1 1119 1.44929486E-08
  1 1120 1.49245821E-08
  1 1121 1.58917785E-08
  1 1122 1.65558533E-08
  1 1123 1.63566111E-08
  1 1124 1.67733309E-08
  1 1125 1.70881295E-08
  1 1126 1.70881295E-08
  1 1127 1.70881295E-08
  1 1128 1.70881295E-08
  1 1129 1.72080207E-08
  1 1130 1.72080207E-08
  1 1131 1.72080207E-08
  1 1132 1.72080207E-08
  1 1133 1.72080207E-08
  1 1134 1.72080207E-08
  1 1135 1.72080207E-08
  1 1136 1.72080207E-08
  1 1137 1.72080207E-08
  1 1138 1.72080207E-08
  1 1139 1.72080207E-08
  1 1140 1.72080207E-08
  1 1141 1.72080207E-08
  1 1142 1.72080207E-08
  1 1143 1.72080207E-08
  1 1144 1.72080207E-08
  1 1145 1.72080207E-08
  1 1146 1.72080207E-08
  1 1147 1.72080207E-08
  1 1148 1.72080207E-08
  1 1149 1.72080207E-08
  1 1150 1.72080207E-08
  1 1151 1.72080207E-08
  1 1152 1.72080207E-08
  1 1153 1.72080207E-08
  1 1154 1.72080207E-08
  1 1155 1.72080207E-08
  1 1156 1.72080207E-08
  1 1157 1.72080207E-08
  1 1158 1.72080207E-08
  1 1159 1.72080207E-08
  1 1160 1.72080207E-08
  1 1161 1.72080207E-08
  1 1162 1.72080207E-08
  1 1163 1.72080207E-08
  1 1164 1.72080207E-08
  1 1165 1.72080207E-08
  1 1166 1.72080207E-08
  1 1167 1.72080207E-08
  1 1168 1.72080207E-08
  1 1169 1.74571758E-08
  1 1170 1.74571758E-08
  1 1171 1.74571758E-08
  1 1172 1.74571758E-08
  1 1173 1.72769765E-08
  1 1174 1.65165942E-08
  1 1175 1.58926886E-08
  1 1176 1.59370447E-08
  1 1177 1.63032930E-08
  1 1178 1.64976610E-08
  1 1179 1.63210099E-08
  1 1180 1.64191224E-08
  1 1181 1.62026323E-08
  1 1182 1.60988036E-08
  1 1183 1.62718720E-08
  1 1184 1.63745847E-08
  1 1185 1.60037478E-08
  1 1186 1.54176090E-08
  1 1187 1.49636388E-08
  1 1188 1.40814537E-08
  1 1189 1.35455438E-08
  1 1190 1.31064211E-08
  1 1191 1.32877304E-08
  1 1192 1.32435596E-08
  1 1193 1.37147247E-08
  1 1194 1.45757961E-08
  1 1195 1.53777494E-08
  1 1196 1.54468497E-08
  1 1197 1.55587089E-08
  1 1198 1.53100555E-08
  1 1199 1.53108819E-08
  1 1200 1.52479818E-08
  1 1201 1.50126679E-08
  1 1202 1.50427960E-08
  1 1203 1.54374430E-08
  1 1204 1.55713062E-08
  1 1205 1.56598048E-08
  1 1206 1.51584119E-08
  1 1207 1.50683482E-08
  1 1208 1.48063322E-08
  1 1209 1.43625533E-08
  1 1210 1.36474708E-08
  1 1211 1.36474708E-08
  1 1212 1.36474708E-08
  1 1213 1.36474708E-08
  1 1214 1.33207262E-08
  1 1215 1.33207262E-08
  1 1216 1.33207262E-08
  1 1217 1.33207262E-08
  1 1218 1.33207262E-08
  1 1219 1.33207262E-08
  1 1220 1.33207262E-08
  1 1221 1.33207262E-08
  1 1222 1.33207262E-08
  1 1223 1.33207262E-08
  1 1224 1.33207262E-08
  1 1225 1.33207262E-08
  1 1226 1.33207262E-08
  1 1227 1.33207262E-08
  1 1228 1.33207262E-08
  1 1229 1.33207262E-08
  1 1230 1.33207262E-08
  1 1231 1.33207262E-08
  1 1232 1.33207262E-08
  1 1233 1.33207262E-08
  1 1234 1.33207262E-08
  1 1235 1.33207262E-08
  1 1236 1.33207262E-08
  1 1237 1.33207262E-08
  1 1238 1.33207262E-08
  1 1239 1.33207262E-08
  1 1240 1.33207262E-08
  1 1241 1.33207262E-08
  1 1242 1.33207262E-08
  1 1243 1.33207262E-08
  1 1244 1.33207262E-08
  1 1245 1.33207262E-08
  1 1246 1.33207262E-08
  1 1247 1.33207262E-08
  1 1248 1.33207262E-08
  1 1249 1.33207262E-08
  1 1250 1.33207262E-08
  1 1251 1.33207262E-08
  1 1252 1.33207262E-08
  1 1253 1.33207262E-08
  1 1254 1.34021921E-08
  1 1255 1.34021921E-08
  1 1256 1.34021921E-08
  1 1257 1.34021921E-08
  1 1258 1.35634446E-08
  1 1259 1.41958106E-08
  1 1260 1.48054625E-08
  1 1261 1.47249115E-08
  1 1262 1.44018896E-08
  1 1263 1.42959299E-08
  1 1264 1.42874913E-08
  1 1265 1.41361955E-08
  1 1266 1.38377086E-08
  1 1267 1.38477852E-08
  1 1268 1.38596324E-08
  1 1269 1.34358712E-08
  1 1270 1.27163407E-08
  1 1271 1.25754808E-08
  1 1272 1.32399625E-08
  1 1273 1.39518577E-08
  1 1274 1.46169362E-08
  1 1275 1.49955418E-08
  1 1276 1.52088596E-08
  1 1277 1.55274420E-08
  1 1278 1.57441393E-08
  1 1279 1.60834713E-08
  1 1280 1.59039104E-08
  1 1281 1.51857879E-08
  1 1282 1.44735003E-08
  1 1283 1.42869581E-08
  1 1284 1.40890041E-08
  1 1285 1.42405081E-08
  1 1286 1.41126249E-08
  1 1287 1.40789458E-08
  1 1288 1.46182914E-08
  1 1289 1.47182715E-08