# File generated by Flopy version 3.7.0 on 06/07/2024 at 13:31:37.
BEGIN options
END options

BEGIN griddata
  icelltype
    CONSTANT  0
  k
    INTERNAL  FACTOR  1.0
    9.99969987E-05  8.61591548E-05  4.55539890E-05  2.65513534E-05  1.56116645E-05  1.45420452E-05  1.64262676E-05  2.34237272E-05  2.85435452E-05  4.55898996E-05  5.41026931E-05  4.77905894E-05  5.47826165E-05  7.48007001E-05  1.34663620E-04  2.30766649E-04  6.32085568E-04       0.00167125       0.00315133       0.00495691
         0.00404737       0.00224774       0.00188086       0.00197599       0.00158371       0.00171484       0.00183184       0.00166830       0.00112429  4.99939117E-04  2.22148839E-04  1.07179380E-04  6.26927624E-05  6.98914162E-05  9.20942699E-05  9.41895364E-05  7.22273403E-05  5.92520101E-05  4.92981761E-05  4.90440183E-05
    7.14722613E-05  1.10843260E-04  2.00497355E-04  3.13603944E-04  3.22218307E-04  2.29086419E-04  1.81399804E-04  2.00185333E-04  3.02638220E-04  3.93877591E-04  4.12402619E-04  3.16809440E-04  2.95204202E-04  1.64973520E-04  8.01333127E-05  5.87514560E-05  4.93560896E-05  3.86462284E-05  3.30672178E-05  3.02982726E-05
    4.07937464E-05  6.67279068E-05  8.89928030E-05  9.34152064E-05  9.74176047E-05  1.22369018E-04  1.54433773E-04  1.80222016E-04  2.11414069E-04  2.71521217E-04  4.27460948E-04  5.47212487E-04  6.34628344E-04  4.86538148E-04  2.93446592E-04  2.90159140E-04  2.42001846E-04  2.59871797E-04  3.09191607E-04  3.66823396E-04
    3.69099526E-04  4.28909518E-04  3.35737616E-04  2.04466473E-04  1.30301789E-04  7.90794952E-05  3.88331992E-05  2.56953606E-05  1.56710352E-05  1.75705486E-05  2.34501184E-05  2.98117653E-05  3.32491974E-05  3.86027535E-05  5.72378869E-05  8.68890492E-05  7.52876259E-05  7.45975432E-05  6.95831869E-05  6.16610871E-05
    6.32944828E-05  4.16776230E-05  2.34201897E-05  1.64102735E-05  1.10787596E-05  9.88155705E-06  8.14027215E-06  1.09490045E-05  1.63389469E-05  1.94914658E-05  1.79017548E-05  2.19825923E-05  4.43545021E-05  6.56667299E-05  9.45879100E-05  1.89261048E-04  6.31647900E-04       0.00160095       0.00215828       0.00183201
         0.00137264       0.00147056       0.00122897       0.00157383       0.00251075       0.00206281       0.00157531       0.00107672  4.89828885E-04  2.08259711E-04  1.88845342E-04  1.42654942E-04  1.55878229E-04  1.73616640E-04  1.91635790E-04  1.92092319E-04  1.07310500E-04  1.03398508E-04  1.18060138E-04  1.32283193E-04
    1.73348867E-04  2.63986950E-04  3.31760951E-04  4.02742023E-04  3.78854842E-04  4.27400735E-04  5.95540340E-04  6.95869752E-04  6.49637376E-04  5.71753590E-04  4.13427351E-04  2.94459938E-04  2.56257239E-04  2.21107320E-04  1.97178379E-04  1.46434772E-04  1.06057357E-04  9.62745074E-05  8.24826994E-05  1.21062973E-04
    1.41550980E-04  1.20146565E-04  1.16563971E-04  9.61223961E-05  8.47500009E-05  1.05164752E-04  1.19369484E-04  1.66269428E-04  2.66597865E-04  3.82325660E-04  4.62699579E-04  4.81487176E-04  4.89438798E-04  3.52471510E-04  2.86185735E-04  2.81579113E-04  2.60128019E-04  2.39751278E-04  3.23145995E-04  3.24523934E-04
    1.98600308E-04  1.36229528E-04  1.29651025E-04  8.20998540E-05  5.51118424E-05  3.17673447E-05  2.09944179E-05  2.14179876E-05  1.81990846E-05  2.35949573E-05  3.54853777E-05  4.85982110E-05  6.71125948E-05  8.99212357E-05  8.95506422E-05  6.99846365E-05  5.85286130E-05  4.97235078E-05  6.43810117E-05  5.88340855E-05
    3.66485625E-05  2.16478439E-05  1.68200534E-05  1.35774362E-05  1.54814010E-05  1.33264443E-05  1.58836273E-05  1.68918387E-05  1.77590360E-05  1.55466702E-05  1.91529948E-05  2.50987540E-05  3.69863019E-05  8.13352892E-05  1.92476379E-04  3.79745629E-04  6.96268075E-04  8.57526637E-04  5.94157332E-04  3.94296168E-04
    5.18815520E-04  8.32701211E-04       0.00135310       0.00221213       0.00211133       0.00130050  6.72725097E-04  2.60766556E-04  1.81192226E-04  2.57005119E-04  3.34429058E-04  3.69560797E-04  3.98532053E-04  5.89522629E-04  4.81206945E-04  3.84325601E-04  3.41989880E-04  3.20352525E-04  3.23126137E-04  4.09684874E-04
    4.92555476E-04  3.99408655E-04  3.42247809E-04  3.92240820E-04  6.12721276E-04  9.25409243E-04       0.00118759  5.85169108E-04  3.03150193E-04  3.16131412E-04  3.99841381E-04  5.02935121E-04  8.64032546E-04  8.15739525E-04  4.95510150E-04  3.85424496E-04  2.76014423E-04  3.20022344E-04  2.72128190E-04  2.51154532E-04
    3.04609474E-04  2.57312299E-04  2.70659035E-04  2.64416510E-04  2.39471710E-04  1.84230070E-04  2.08620576E-04  2.55082413E-04  4.83951954E-04  5.76353096E-04  4.44212400E-04  5.54388095E-04  3.86996235E-04  2.56489649E-04  1.80072247E-04  1.27689553E-04  1.26360517E-04  9.22089221E-05  7.54556243E-05  6.03769360E-05
    6.18164746E-05  8.18059258E-05  1.26868884E-04  1.31671047E-04  1.13785229E-04  8.19082965E-05  8.17432925E-05  8.28223345E-05  1.24240405E-04  1.59494767E-04  1.25739692E-04  9.70368181E-05  8.75237140E-05  8.93678628E-05  6.98160832E-05  6.33232781E-05  5.50410939E-05  5.37063247E-05  6.96523961E-05  9.91873564E-05
    2.05393690E-05  2.01385062E-05  1.53968005E-05  1.56060146E-05  1.69152026E-05  1.74976465E-05  1.84582302E-05  1.96976336E-05  2.18755102E-05  3.07189015E-05  4.32661582E-05  6.16970335E-05  1.03535751E-04  1.68157524E-04  2.97442358E-04  5.29407967E-04  5.66714515E-04  4.47432714E-04  3.43040523E-04  2.87948431E-04
    3.87922804E-04  6.16544013E-04  6.92788441E-04  5.66370805E-04  5.48195683E-04  4.37672062E-04  3.00027195E-04  3.68514635E-04  6.81244113E-04       0.00111875  9.55581494E-04  9.01524420E-04  7.27913144E-04  6.53698112E-04  4.45160989E-04  4.19770087E-04  4.38794249E-04  6.24459503E-04  6.60244309E-04  5.64979842E-04
    2.46505939E-04  1.90756425E-04  2.54470088E-04  2.91125523E-04  5.05979697E-04  5.37311411E-04  4.70422214E-04  3.69493152E-04  4.75514694E-04  6.91829263E-04       0.00109147       0.00153275       0.00136767  9.39804185E-04  6.24443747E-04  5.41773798E-04  6.63664028E-04  5.51406656E-04  4.50038075E-04  4.77350950E-04
    4.15724396E-04  3.48456054E-04  2.94496369E-04  2.81723900E-04  2.59311989E-04  2.69796941E-04  3.92813923E-04  3.07338491E-04  2.43138656E-04  2.33907974E-04  2.81609256E-04  3.30048280E-04  2.30205606E-04  1.15578687E-04  6.44055498E-05  4.00443250E-05  3.47631380E-05  4.09524209E-05  3.15042708E-05  3.73484724E-05
    7.85652057E-05  1.42799579E-04  1.91263277E-04  1.96694138E-04  2.06826966E-04  2.50784987E-04  3.29358293E-04  3.47733001E-04  2.91045436E-04  1.24370759E-04  8.09751589E-05  8.03309526E-05  1.04095975E-04  1.22450771E-04  1.46590157E-04  1.60290593E-04  1.83010283E-04  1.50885061E-04  9.30156778E-05  7.52447037E-05
    7.79807012E-06  9.79320524E-06  1.28889039E-05  1.97059153E-05  2.51733941E-05  2.46487872E-05  3.34909809E-05  4.91586285E-05  6.64360691E-05  6.78242760E-05  5.81124266E-05  8.03285706E-05  8.30543436E-05  2.04852152E-04  6.28282559E-04  6.83214881E-04  3.83377103E-04  2.74738933E-04  3.11201208E-04  4.30901393E-04
    4.68005063E-04  4.07153044E-04  5.10021868E-04  5.92196633E-04  8.48289062E-04       0.00113732       0.00153346       0.00206626       0.00223177       0.00195240       0.00221163       0.00143703  5.77173061E-04  4.29385389E-04  5.20159721E-04  7.20550407E-04       0.00109130       0.00136228  7.29578750E-04  3.46987233E-04
    2.07730448E-04  1.66003792E-04  1.69423644E-04  2.49014489E-04  3.44873261E-04  4.04883722E-04  4.84484947E-04  6.23013619E-04  9.44939380E-04       0.00162321       0.00129351       0.00137422  8.43847277E-04  6.37976294E-04  6.33079962E-04  7.24570679E-04  6.35584753E-04  4.58492762E-04  4.02769260E-04  3.69798525E-04
    3.17443918E-04  2.36049243E-04  2.13690321E-04  2.43684528E-04  3.71519644E-04  3.58275017E-04  2.25789403E-04  2.08263054E-04  1.66996122E-04  1.99270619E-04  2.66388363E-04  1.31981226E-04  6.18716256E-05  4.81162227E-05  5.26274314E-05  5.69786459E-05  4.61317620E-05  4.63314445E-05  6.88188915E-05  1.13453396E-04
    1.49807067E-04  2.32519096E-04  2.03919630E-04  2.71941436E-04  5.05535154E-04  9.63261361E-04       0.00141760  8.28779975E-04  4.22537791E-04  3.81305381E-04  3.62438838E-04  3.99362805E-04  3.26584478E-04  2.75294492E-04  2.84952375E-04  2.21918065E-04  1.32936415E-04  8.97069255E-05  8.80123733E-05  9.97655415E-05
    1.29017470E-05  1.81768077E-05  2.89006441E-05  3.41057775E-05  3.31660383E-05  4.95951747E-05  4.86699883E-05  4.33277107E-05  5.13907231E-05  5.76719018E-05  8.57536182E-05  1.66935210E-04  3.78162409E-04  5.98765439E-04  5.22107247E-04  3.94184258E-04  3.84391401E-04  3.46463674E-04  3.53008028E-04  5.65360904E-04
         0.00106078       0.00157421       0.00171681       0.00208421       0.00190997       0.00192566       0.00225802       0.00214286       0.00183219       0.00154295  9.27459553E-04  7.69674713E-04  7.36707825E-04  9.04298375E-04       0.00131476       0.00143209       0.00135959  6.04287756E-04  2.53649299E-04  1.35352620E-04
    1.03511531E-04  1.19216856E-04  1.56677321E-04  2.72573578E-04  3.02601379E-04  3.22803451E-04  4.92002494E-04  5.29051595E-04  7.32053688E-04  7.84414507E-04  8.16119102E-04  8.22502772E-04  7.21080339E-04  7.17812805E-04  5.40254097E-04  5.82334087E-04  5.60589818E-04  4.76044038E-04  3.53428145E-04  3.18151102E-04
    3.48097515E-04  3.42533826E-04  3.46450458E-04  2.81764292E-04  1.77439995E-04  1.24490071E-04  8.10910156E-05  8.11663674E-05  5.75690214E-05  5.80269544E-05  6.04757648E-05  5.73707021E-05  7.26351838E-05  6.52618035E-05  6.69023325E-05  9.10523284E-05  1.13802829E-04  1.58088540E-04  1.74787951E-04  1.78213161E-04
    1.60329126E-04  2.80054699E-04  5.98854085E-04       0.00117224       0.00150231       0.00116813       0.00100558  7.54034949E-04  4.85466528E-04  3.89317272E-04  4.03605833E-04  3.28564141E-04  3.08648119E-04  2.98401100E-04  2.02924281E-04  1.34089850E-04  8.54149896E-05  1.04396665E-04  1.55594895E-04  2.35714935E-04
    3.56048331E-05  2.84005237E-05  3.51052984E-05  4.62907506E-05  5.00087766E-05  5.80176208E-05  6.26830038E-05  1.00979912E-04  1.15817417E-04  1.24451512E-04  1.72309935E-04  2.08756614E-04  3.24976525E-04  5.03717613E-04  4.57627376E-04  4.59721811E-04  5.54889283E-04  8.87743353E-04       0.00173632       0.00357621
         0.00298512       0.00230677       0.00204323       0.00189906       0.00158741  9.38938524E-04  9.99188093E-04  8.52189832E-04  6.21037649E-04  5.68951104E-04  6.05580319E-04  6.98374704E-04       0.00111648       0.00156173       0.00129707  6.10382456E-04  3.42685548E-04  1.92909267E-04  1.73297071E-04  1.57686851E-04
    1.38073622E-04  1.84700329E-04  2.77717938E-04  2.73137983E-04  4.23138315E-04  7.01306793E-04  7.65919443E-04  8.33271854E-04  7.97391884E-04  8.83597194E-04  6.59226274E-04  6.21005437E-04  8.53702013E-04  9.53840766E-04  8.28332944E-04  4.78937690E-04  2.29391920E-04  1.49161208E-04  1.19343928E-04  1.30493939E-04
    1.14579684E-04  7.10983270E-05  4.00797214E-05  3.67713386E-05  4.39925613E-05  6.09137482E-05  6.77185221E-05  5.33375990E-05  4.25438361E-05  7.60772277E-05  9.24166820E-05  1.07164983E-04  1.16940388E-04  1.91667781E-04  2.82869922E-04  4.42068805E-04  3.50781174E-04  1.77909134E-04  1.44260984E-04  2.09644226E-04
    4.76513401E-04  7.84089339E-04  6.75716977E-04  5.73595514E-04  4.96189303E-04  5.76169352E-04  5.67730850E-04  5.58448985E-04  5.20728954E-04  5.17627767E-04  4.10414965E-04  3.25822441E-04  2.37258262E-04  2.07559610E-04  1.43360403E-04  1.24624064E-04  1.84282193E-04  2.87360989E-04  4.25476959E-04  5.85874618E-04
    2.81968638E-05  3.46595090E-05  2.97575253E-05  4.89124505E-05  9.40555716E-05  1.64257053E-04  2.50141842E-04  2.47533116E-04  2.47731786E-04  3.12056564E-04  2.91373972E-04  2.70920087E-04  3.63488578E-04  3.88634878E-04  3.85213616E-04  5.28800306E-04  9.46730827E-04       0.00195636       0.00277935       0.00200782
         0.00147025       0.00117809  9.71972660E-04  8.27566117E-04  7.48198983E-04  5.11638980E-04  4.77459650E-04  5.17080460E-04  5.93266375E-04  5.02805312E-04  5.24612685E-04  7.94641733E-04       0.00113825       0.00117699  7.31192717E-04  6.10356792E-04  5.29983617E-04  3.09052766E-04  2.73415357E-04  2.28691685E-04
    2.66738223E-04  2.76777581E-04  5.22618975E-04  6.87121128E-04  7.06595373E-04  6.80740163E-04  6.84596254E-04       0.00102348       0.00111661  9.21072519E-04  8.31527509E-04  8.59725739E-04  8.89893651E-04  8.65567424E-04  4.15836698E-04  1.87101354E-04  1.00100424E-04  9.00983652E-05  7.20035797E-05  3.16101305E-05
    2.01768960E-05  1.80524683E-05  2.19165249E-05  3.50296894E-05  4.53162539E-05  6.04806958E-05  6.90048590E-05  7.66554697E-05  7.79710762E-05  7.15420483E-05  8.60249659E-05  8.53939713E-05  1.44401201E-04  3.00831038E-04  4.73860351E-04  4.21128879E-04  2.55749349E-04  2.59916438E-04  2.79480808E-04  4.22958252E-04
    5.21194728E-04  5.11304110E-04  4.21669296E-04  4.04060327E-04  4.38322419E-04  4.74363835E-04  5.88418578E-04  6.03319260E-04  5.68405788E-04  6.95533720E-04  3.53587551E-04  2.21438673E-04  2.03508852E-04  2.24290709E-04  3.21160220E-04  5.00855184E-04  6.83552903E-04  8.23393854E-04  7.25063319E-04  3.98962346E-04
    1.17155944E-04  1.84531165E-04  2.68161313E-04  3.29728387E-04  3.13428457E-04  3.10662681E-04  4.05026294E-04  3.91469924E-04  2.98086191E-04  2.44272137E-04  4.65386248E-04  6.56995541E-04  6.31569125E-04  7.32613397E-04  6.97241206E-04  8.94187529E-04       0.00144382       0.00221655       0.00225351       0.00146884
    6.11054214E-04  3.42163648E-04  2.63506741E-04  3.03718738E-04  3.45879923E-04  4.40965101E-04  3.86492093E-04  2.80940874E-04  2.46537670E-04  5.59712768E-04  8.63138277E-04  8.75669657E-04  9.07544025E-04       0.00110060  8.51432392E-04  5.53288032E-04  4.19031934E-04  2.75041413E-04  2.32758371E-04  2.33006793E-04
    3.79485332E-04  4.83564129E-04  6.16121336E-04  8.60806567E-04  8.54586291E-04       0.00105329       0.00114118  8.87746477E-04  5.65577110E-04  5.06422379E-04  5.58668417E-04  5.79735181E-04  4.44482228E-04  2.37627799E-04  2.14853646E-04  1.97977321E-04  1.66466444E-04  1.38508383E-04  7.97238153E-05  4.14403421E-05
    2.87746425E-05  3.25540357E-05  3.91809385E-05  4.89334687E-05  6.24751958E-05  6.84784935E-05  6.04682382E-05  5.97445149E-05  4.84911881E-05  5.78087903E-05  8.81176989E-05  1.68584019E-04  3.58252278E-04  6.20276877E-04  4.63297539E-04  3.00659764E-04  2.34900324E-04  1.94598243E-04  2.09922504E-04  2.25531599E-04
    2.16776908E-04  2.78341351E-04  2.63970551E-04  2.66961238E-04  3.23444111E-04  3.35697437E-04  3.71712079E-04  4.18806887E-04  3.45933355E-04  2.53827865E-04  2.09018766E-04  2.48597917E-04  4.38819486E-04  6.29012949E-04  8.49949895E-04       0.00137158       0.00137862       0.00137213  7.59027443E-04  4.16700416E-04
    4.99185442E-04  4.22242087E-04  3.17845600E-04  2.08134018E-04  3.03499234E-04  4.22197675E-04  3.41075944E-04  4.29913678E-04  8.33412745E-04       0.00139817       0.00105222  5.84018938E-04  4.96955833E-04  4.99109649E-04  6.92219717E-04       0.00126295       0.00195932       0.00188890  8.37634049E-04  3.93778656E-04
    2.84993728E-04  2.49561828E-04  2.65199229E-04  2.73437471E-04  2.62838957E-04  1.80329634E-04  1.23304011E-04  1.33453543E-04  2.68479841E-04  2.71160800E-04  3.30954062E-04  6.89723450E-04  9.31458916E-04  8.46021122E-04  7.06160779E-04  4.99745285E-04  4.07706168E-04  2.62657505E-04  2.71929514E-04  2.92235536E-04
    3.82354051E-04  5.19463527E-04  6.99178931E-04  7.26644953E-04  7.43261005E-04  4.95886403E-04  3.32145937E-04  3.72426399E-04  4.39726062E-04  4.16207856E-04  3.40874978E-04  3.46562677E-04  3.60830240E-04  2.87700854E-04  3.23636177E-04  2.99401637E-04  1.88021743E-04  1.06699197E-04  6.53858486E-05  4.71820899E-05
    4.58628774E-05  5.62484255E-05  4.55072416E-05  4.46403678E-05  5.00061411E-05  5.81448743E-05  5.89480563E-05  5.34596811E-05  6.63954444E-05  9.31610083E-05  1.83207230E-04  3.61078122E-04  4.61862799E-04  3.76224469E-04  2.73868056E-04  1.98291796E-04  1.07566815E-04  5.86628788E-05  5.45889949E-05  7.19342347E-05
    1.20465949E-04  1.49215034E-04  1.13145288E-04  7.35081126E-05  7.87535109E-05  8.16298928E-05  8.82187086E-05  8.99721524E-05  1.08054897E-04  1.40650770E-04  1.75346291E-04  3.58195564E-04  5.61132130E-04  7.21713695E-04  8.14259723E-04  8.73507328E-04  6.33400227E-04  4.90649099E-04  3.75976379E-04  3.32787608E-04
    2.49608760E-04  1.65157246E-04  1.40285990E-04  1.66011093E-04  2.40512235E-04  3.77711756E-04  6.19997776E-04  9.14711794E-04  8.99223077E-04  9.73083565E-04  6.36399265E-04  3.59494001E-04  3.18584888E-04  3.61302588E-04  6.03922811E-04       0.00103729  8.91125403E-04  5.52318201E-04  3.47211820E-04  2.44116987E-04
    2.44116987E-04  2.44116987E-04  2.44116987E-04  2.65253788E-04  3.31951686E-04  2.29550378E-04  1.07529968E-04  5.65884809E-05  5.71879538E-05  9.02896014E-05  9.25747336E-05  1.28072131E-04  2.67471335E-04  4.39670784E-04  5.30922085E-04  5.87606839E-04  4.93917924E-04  3.57936795E-04  2.53080888E-04  2.37105640E-04
    2.82507383E-04  4.17705137E-04  4.85515565E-04  4.37585870E-04  3.62637686E-04  2.39804283E-04  1.83227289E-04  1.48078198E-04  1.32996238E-04  1.86908382E-04  3.16231989E-04  3.45893929E-04  3.19129650E-04  3.46586840E-04  4.89700741E-04  5.84120499E-04  7.27848870E-04  4.70975817E-04  2.98567435E-04  2.12104760E-04
    1.81284670E-04  1.44231781E-04  1.07264588E-04  1.07264588E-04  1.07264588E-04  1.07264588E-04  6.92307305E-05  6.26392455E-05  5.76299217E-05  6.94914519E-05  6.95107929E-05  7.26842554E-05  9.28913622E-05  1.07370281E-04  1.93168432E-04  3.81205894E-04  4.55293893E-04  4.02471447E-04  2.30854860E-04  1.43906295E-04
    1.12688603E-04  9.46662309E-05  7.20956510E-05  7.55301687E-05  1.11378433E-04  9.67303189E-05  7.74563980E-05  7.02702956E-05  4.84614576E-05  5.16779477E-05  4.65551933E-05  4.68910463E-05  6.34271317E-05  8.28779233E-05  1.19770514E-04  1.68996774E-04  2.62961538E-04  3.14126551E-04  3.82211311E-04  3.80949261E-04
    3.47918329E-04  4.70745778E-04  4.54515827E-04  3.58795633E-04  2.49287612E-04  1.84058694E-04  1.25242642E-04  9.40040424E-05  8.21847624E-05  1.19524164E-04  2.16208183E-04  3.96803072E-04  6.87854494E-04       0.00117694       0.00103923  4.42711998E-04  2.31332240E-04  1.86628399E-04  2.06161129E-04  3.09253404E-04
    4.30104840E-04  6.09818864E-04  6.36973602E-04  6.34756449E-04  4.58791473E-04  4.58791473E-04  4.58791473E-04  4.58791473E-04  3.71741507E-04  3.71741507E-04  3.71741507E-04  3.71741507E-04  3.71741507E-04  3.71741507E-04  3.71741507E-04  3.71741507E-04  3.71741507E-04  3.71741507E-04  3.71741507E-04  3.71741507E-04
    3.71741507E-04  3.71741507E-04  3.71741507E-04  3.71741507E-04  3.71741507E-04  3.71741507E-04  3.71741507E-04  3.71741507E-04  3.71741507E-04  3.71741507E-04  3.71741507E-04  3.71741507E-04  3.71741507E-04  3.71741507E-04  3.71741507E-04  3.71741507E-04  3.71741507E-04  3.71741507E-04  3.71741507E-04  3.71741507E-04
    3.71741507E-04  3.71741507E-04  3.71741507E-04  3.71741507E-04  3.71741507E-04  3.71741507E-04  3.71741507E-04  3.71741507E-04  2.79510548E-04  2.79510548E-04  2.79510548E-04  2.79510548E-04  1.65600366E-04  1.00928693E-04  8.03140695E-05  8.19828490E-05  8.93092102E-05  1.24916685E-04  2.06441998E-04  2.89234593E-04
    4.35104192E-04  4.28536483E-04  3.68588062E-04  1.90272592E-04  1.08592730E-04  7.46595483E-05  9.11095480E-05  1.35929862E-04  2.24059158E-04  2.93555563E-04  4.05562691E-04  3.38047892E-04  2.05693582E-04  1.49867081E-04  9.85699591E-05  1.01960179E-04  1.65904580E-04  2.08175870E-04  3.28171409E-04  2.88610176E-04
    2.03746199E-04  2.30879619E-04  3.81742877E-04  4.04418318E-04  2.73186311E-04  2.03077526E-04  2.09792879E-04  2.14156826E-04  1.67926203E-04  1.31186837E-04  1.31186837E-04  1.31186837E-04  1.31186837E-04  1.08948795E-04  1.08948795E-04  1.08948795E-04  1.08948795E-04  1.08948795E-04  1.08948795E-04  1.08948795E-04
    1.08948795E-04  1.08948795E-04  1.08948795E-04  1.08948795E-04  1.08948795E-04  1.08948795E-04  1.08948795E-04  1.08948795E-04  1.08948795E-04  1.08948795E-04  1.08948795E-04  1.08948795E-04  1.08948795E-04  1.08948795E-04  1.08948795E-04  1.08948795E-04  1.08948795E-04  1.08948795E-04  1.08948795E-04  1.08948795E-04
    1.08948795E-04  1.08948795E-04  1.08948795E-04  1.08948795E-04  1.08948795E-04  1.08948795E-04  1.08948795E-04  1.08948795E-04  1.08948795E-04  1.08948795E-04  1.08948795E-04  1.08948795E-04  1.08948795E-04  8.51484516E-05  8.51484516E-05  8.51484516E-05  8.51484516E-05  7.91841364E-05  8.89763079E-05  9.24472906E-05
    8.85903627E-05  1.60351473E-04  2.69914119E-04  5.25213558E-04  5.30069271E-04  5.88983251E-04  5.08677146E-04  2.69461040E-04  1.41436065E-04  1.24047978E-04  1.22363467E-04  1.46146546E-04  1.43940188E-04  1.35148744E-04  1.35075029E-04  1.24186508E-04  1.07796517E-04  8.13759342E-05  6.64005740E-05  6.73126431E-05
    5.44403832E-05  7.86631867E-05  1.08101088E-04  1.07140577E-04  9.53612219E-05  1.60321390E-04  3.36415042E-04  4.06095787E-04  3.97677662E-04  3.98240574E-04  4.22557244E-04  2.53966724E-04  2.13953048E-04  1.72720285E-04  1.12259895E-04  8.60779446E-05  6.73135885E-05  8.15925183E-05  1.42593692E-04  3.07763902E-04
    3.61261104E-04  5.60684702E-04  7.69162310E-04  4.87324615E-04  3.78450197E-04  2.50841211E-04  2.44280383E-04  1.90484795E-04  1.60863794E-04  1.85141617E-04  3.06669858E-04  3.98966125E-04  3.69325954E-04  2.61931657E-04  1.67596745E-04  1.19514448E-04  1.19514448E-04  1.19514448E-04  1.19514448E-04  9.07850303E-05
    1.06291341E-04  1.80589079E-04  1.80091455E-04  1.70032449E-04  2.24927548E-04  3.34236121E-04  5.54064759E-04  7.71167341E-04  7.28090564E-04  5.34298792E-04  2.34727110E-04  9.97471658E-05  6.30633783E-05  8.62641616E-05  1.29543709E-04  2.74434314E-04  3.72382160E-04  3.80620627E-04  3.03439913E-04  1.94274460E-04
    1.37212402E-04  1.26206220E-04  1.38310557E-04  1.51359619E-04  1.04177675E-04  9.87948221E-05  7.00033165E-05  6.66883065E-05  8.02586200E-05  1.29469564E-04  1.56992250E-04  1.71428949E-04  1.78941995E-04  1.93925007E-04  1.75016661E-04  1.51981271E-04  1.60634158E-04  1.25731861E-04  1.24640115E-04  1.24640115E-04
    1.24640115E-04  1.24640115E-04  1.36328859E-04  1.66624074E-04  2.46451822E-04  3.81572218E-04  5.79659679E-04  8.38056525E-04       0.00112667  8.74457477E-04  5.01761297E-04  3.30136512E-04  2.48811536E-04  1.94992291E-04  2.00521088E-04  2.31125189E-04  3.12527019E-04  3.30730416E-04  2.83797440E-04  2.60827357E-04
    2.84109144E-04  2.79086672E-04  1.98103263E-04  1.52229654E-04  9.19903342E-05  1.09048779E-04  1.19102199E-04  1.27091851E-04  1.45971670E-04  2.52593675E-04  5.12395446E-04  7.22601263E-04  9.46484694E-04  7.33467041E-04  8.73829087E-04  6.38653666E-04  4.26164392E-04  3.25333592E-04  1.82898561E-04  1.37608376E-04
    1.43541928E-04  1.34800903E-04  1.89073024E-04  2.80188027E-04  3.36285994E-04  3.40498511E-04  4.35900408E-04  3.71568047E-04  2.80135997E-04  2.14249220E-04  1.90592245E-04  1.97078851E-04  9.03350528E-05  7.97479803E-05  1.20688602E-04  1.90696254E-04  2.69115681E-04  2.92634227E-04  2.51395320E-04  1.85406191E-04
    1.53800252E-04  1.87398295E-04  3.18467817E-04  4.39659892E-04  3.84138584E-04  3.33669466E-04  4.42209681E-04  6.37095167E-04       0.00105263       0.00106512  6.71176882E-04  3.24434307E-04  2.15860352E-04  1.30518665E-04  1.18237261E-04  1.15131329E-04  2.15535176E-04  3.75463449E-04  4.56704523E-04  6.02372889E-04
    7.70900116E-04  5.82246551E-04  3.97209488E-04  2.25676847E-04  1.92041451E-04  1.10923911E-04  7.37427342E-05  6.25592827E-05  6.43247415E-05  7.98638629E-05  1.11065608E-04  1.56046816E-04  1.62894124E-04  1.53622922E-04  2.01101473E-04  2.63743345E-04  2.83540768E-04  2.22885072E-04  2.07579847E-04  2.27046084E-04
    1.89336761E-04  1.77590967E-04  2.84043269E-04  4.33568399E-04  6.06848342E-04  9.41123241E-04  9.96254159E-04  8.30436658E-04  5.14439658E-04  4.16018235E-04  2.73390890E-04  2.14140526E-04  1.89389931E-04  2.23053481E-04  2.97493456E-04  3.96710603E-04  5.81048934E-04  5.16739256E-04  4.16078092E-04  4.78842924E-04
    3.14779998E-04  2.14522605E-04  1.82929999E-04  1.58840843E-04  1.89621828E-04  2.33468253E-04  2.56461208E-04  3.34609388E-04  5.11183984E-04  5.68048237E-04  5.22100341E-04  6.65315967E-04       0.00100555       0.00102397  6.12785809E-04  4.12124612E-04  2.92302069E-04  1.84118737E-04  1.74625744E-04  1.40906932E-04
    1.30122451E-04  1.47172275E-04  2.25510758E-04  2.80480956E-04  3.28544032E-04  2.80190314E-04  2.72570299E-04  1.99906892E-04  1.12892256E-04  8.14870014E-05  7.97088503E-05  8.23116705E-05  8.79770266E-05  1.34145853E-04  2.00165738E-04  2.41815892E-04  2.53183814E-04  3.36583418E-04  3.77796757E-04  3.30319681E-04
    3.22761581E-04  3.59126662E-04  4.89196921E-04  6.40104755E-04  8.54544718E-04  9.17346953E-04  7.05950209E-04  5.91928972E-04  4.12570762E-04  2.55081883E-04  1.70007711E-04  1.67276330E-04  1.81545222E-04  2.68697561E-04  3.34213466E-04  5.01387640E-04  6.52835749E-04  7.08094669E-04  7.18249952E-04  7.65767803E-04
    5.98786981E-04  3.32442144E-04  2.02288747E-04  1.12529988E-04  5.57018590E-05  5.83110376E-05  6.43690011E-05  7.31623246E-05  6.29505869E-05  9.53853015E-05  1.43103723E-04  1.82069550E-04  2.89551002E-04  4.57608762E-04  5.36321284E-04  5.28553538E-04  3.48381474E-04  2.33272781E-04  2.29225158E-04  2.59887280E-04
    3.27114241E-04  3.44171640E-04  4.63199339E-04  5.95003971E-04  7.88273909E-04  9.68629229E-04  5.82079526E-04  3.20243934E-04  2.46511365E-04  1.92858825E-04  2.01267693E-04  2.49523469E-04  4.46912183E-04  5.61770120E-04  6.53707833E-04  6.59620540E-04  4.29176478E-04  2.94593032E-04  2.50229122E-04  1.73939157E-04
    1.72026149E-04  2.13909103E-04  2.41888899E-04  1.89529988E-04  1.75188088E-04  2.32652080E-04  3.27771109E-04  4.02747877E-04  4.60183840E-04  6.31974606E-04  8.43092179E-04  7.52018390E-04  8.38814979E-04  6.43479590E-04  5.15808636E-04  2.55746864E-04  1.55076016E-04  1.74268591E-04  1.16274081E-04  8.12343520E-05
    8.23699775E-05  9.97564432E-05  4.14550347E-04  5.00120026E-04  4.06699557E-04  2.34349180E-04  2.00655917E-04  9.20386178E-05  7.48002477E-05  9.83866689E-05  1.42974766E-04  2.50734443E-04  3.02155772E-04  2.58943876E-04  2.67471605E-04  3.63657890E-04  4.07987343E-04  5.16294229E-04  5.65415187E-04  5.35876637E-04
    5.31152335E-04  7.19586356E-04  8.21696125E-04  8.24619273E-04  7.20546663E-04  5.85808658E-04  4.23530209E-04  5.36842687E-04  3.45331580E-04  2.41663512E-04  2.43196850E-04  2.87114851E-04  2.83351622E-04  4.05874080E-04  5.07671887E-04  4.81471730E-04  4.88280704E-04  3.99666530E-04  5.19909361E-04  3.91535930E-04
    2.01182278E-04  1.26752837E-04  6.07136045E-05  4.28401279E-05  5.74035176E-05  7.27763939E-05  7.34122546E-05  7.90863100E-05  1.15431240E-04  1.58705017E-04  2.36830049E-04  3.10445136E-04  4.77061138E-04  7.10216145E-04  5.43786566E-04  4.10571829E-04  3.99389797E-04  4.50801180E-04  3.92736580E-04  4.58391047E-04
    4.59060403E-04  5.03018678E-04  4.83836472E-04  4.41298125E-04  2.94628192E-04  1.85429455E-04  1.66297042E-04  1.42231402E-04  1.30647596E-04  1.71527635E-04  2.66881918E-04  3.62942555E-04  4.94115459E-04  7.38850762E-04  4.55668427E-04  3.16899218E-04  2.43684328E-04  2.43813602E-04  2.56175569E-04  2.20822830E-04
    1.86558111E-04  9.22609226E-05  6.68919050E-05  8.66308275E-05  1.43727447E-04  2.52617106E-04  3.64075912E-04  6.96777488E-04  8.62238730E-04       0.00106090       0.00104592       0.00104819  8.54220957E-04  4.75387507E-04  2.72444016E-04  1.76340089E-04  8.70766732E-05  5.48850559E-05  4.76671847E-05  6.12467091E-05
    7.79764938E-05  8.53147168E-05  3.76349851E-04  4.29983256E-04  3.85662073E-04  2.49129570E-04  1.59560399E-04  1.62391664E-04  1.70906876E-04  2.78523204E-04  4.13765573E-04  4.01258564E-04  3.63393278E-04  3.77790421E-04  2.47205790E-04  2.90652036E-04  3.50575976E-04  4.64789031E-04  6.69038271E-04  6.35336530E-04
    8.08469964E-04  8.91659382E-04  6.97201477E-04  4.01079620E-04  4.88253605E-04  6.92863034E-04  7.07862383E-04  6.38964438E-04  5.50108598E-04  4.40162267E-04  3.64857157E-04  2.94113376E-04  2.88235359E-04  3.33469290E-04  2.91678945E-04  2.79271772E-04  3.08556097E-04  3.20976747E-04  3.27791174E-04  2.89264664E-04
    1.57401871E-04  1.33000656E-04  1.51507702E-04  1.13224639E-04  1.08622647E-04  1.28402047E-04  1.53538678E-04  1.68155894E-04  1.39816094E-04  1.84780165E-04  3.47701256E-04  6.38213465E-04  8.75498194E-04  8.62934260E-04  7.23655446E-04  6.54074639E-04  5.38290673E-04  4.17025922E-04  4.16952106E-04  4.75229109E-04
    5.41601295E-04  4.14413200E-04  3.40869140E-04  2.47051008E-04  1.62472155E-04  1.42227533E-04  1.17074935E-04  1.14706907E-04  1.80006945E-04  2.01005166E-04  2.59112096E-04  2.97528738E-04  2.65556545E-04  1.90386549E-04  1.82437511E-04  2.57770016E-04  3.34587537E-04  2.86058015E-04  2.10029999E-04  1.08245495E-04
    8.62604519E-05  1.30407713E-04  2.35038934E-04  2.27075662E-04  2.04763654E-04  2.93173013E-04  4.54449081E-04  6.52527880E-04  9.81056068E-04       0.00127514       0.00100805  6.62873318E-04  3.64003909E-04  1.77780840E-04  1.22959954E-04  9.01351234E-05  7.14363582E-05  6.48421278E-05  6.94057392E-05  8.10493214E-05
    6.71456761E-05  5.86613541E-05  5.57294564E-04  5.25242845E-04  4.56209248E-04  3.98025608E-04  4.27220206E-04  2.85997302E-04  1.82009540E-04  1.98975681E-04  4.06824779E-04  5.44767469E-04  3.89460743E-04  2.67457328E-04  3.43105230E-04  4.05865158E-04  4.94682014E-04  4.78352001E-04  5.01639226E-04  6.49672470E-04
    7.84024420E-04  7.14246298E-04  7.41432360E-04       0.00101543       0.00145992       0.00125892       0.00130559  8.09153400E-04  5.58551637E-04  5.07290623E-04  4.92224326E-04  3.82111959E-04  2.77125919E-04  1.94693489E-04  1.70492727E-04  1.90321383E-04  2.61287861E-04  4.12492353E-04  4.74729495E-04  4.36480214E-04