# File generated by Flopy version 3.7.0 on 06/28/2024 at 11:45:31.
BEGIN options
END options

BEGIN griddata
  strt
    INTERNAL  FACTOR  1.0
        15.00000000      15.00000000      15.00000000      15.00000000      15.00000000      15.00000000      15.00000000      15.00000000      15.00000000      15.00000000      15.00000000      15.00000000      15.00000000      15.00000000      15.00000000      15.00000000      15.00000000      15.00000000      15.00000000      15.00000000
        15.00000000      15.00000000      15.00000000      15.00000000      15.00000000      15.00000000      15.00000000      15.00000000      15.00000000      15.00000000      15.00000000      15.00000000      15.00000000      15.00000000      15.00000000      15.00000000      15.00000000      15.00000000      15.00000000      15.00000000
        15.00000000      15.00000000      15.00000000      15.00000000      15.00000000      15.00000000      15.00000000      15.00000000      15.00000000      15.00000000      15.00000000      15.00000000      15.00000000      15.00000000      15.00000000      15.00000000      15.00000000      15.00000000      15.00000000      15.00000000
        15.00000000      15.00000000      15.00000000      15.00000000      15.00000000      15.00000000      15.00000000      15.00000000      15.00000000      15.00000000      15.00000000      15.00000000      15.00000000      15.00000000      15.00000000      15.00000000      15.00000000      15.00000000      15.00000000      15.00000000
        15.00000000      15.00000000      15.00000000      15.00000000      15.00000000      15.00000000      15.00000000      15.00000000      15.00000000      15.00000000      15.00000000      15.00000000      15.00000000      15.00000000      15.00000000      15.00000000      15.00000000      15.00000000      15.00000000      15.00000000
        15.03272179      15.03316477      15.03340538      15.03240002      15.03002717      15.02673964      15.02304638      15.01985594      15.01684453      15.01362895      15.01071574      15.00847216      15.00652628      15.00489751      15.00372077      15.00290762      15.00237039      15.00201234      15.00185059      15.00188729
        15.00210691      15.00257037      15.00316167      15.00390368      15.00471097      15.00556142      15.00665280      15.00800270      15.00952848      15.01099758      15.01216550      15.01296124      15.01367284      15.01457757      15.01565717      15.01633485      15.01637083      15.01618027      15.01586154      15.01535548
        15.01485406      15.01391056      15.01268963      15.01161357      15.01078293      15.01034222      15.01029398      15.01071156      15.01147018      15.01207511      15.01241237      15.01222288      15.01173123      15.01098954      15.01017093      15.00936887      15.00909152      15.00925557      15.00925342      15.00898419
        15.00863942      15.00846254      15.00860525      15.00895458      15.00956457      15.01002906      15.01026590      15.01036721      15.01034186      15.01037898      15.01091382      15.01211246      15.01440754      15.01694765      15.01862453      15.01955937      15.02009528      15.02027575      15.02025001      15.02085157
        15.02206823      15.02413046      15.02724369      15.03103982      15.03443413      15.03728726      15.04017844      15.04262822      15.04561767      15.04901906      15.05311180      15.05833923      15.06268848      15.06460223      15.06541248      15.06395306      15.06173670      15.05981467      15.05949273      15.06078625
        15.05960476      15.05948038      15.05830616      15.05538708      15.05058130      15.04509495      15.03958989      15.03438589      15.02955031      15.02449819      15.01960586      15.01557015      15.01224343      15.00943433      15.00719960      15.00552797      15.00429743      15.00342251      15.00295853      15.00299370
        15.00347423      15.00446618      15.00580610      15.00737550      15.00908061      15.01080591      15.01287425      15.01544865      15.01806080      15.02034531      15.02208786      15.02347409      15.02496433      15.02678690      15.02861586      15.02968136      15.03052169      15.03129244      15.03152821      15.03133396
        15.03070299      15.02948848      15.02797541      15.02642012      15.02529579      15.02517865      15.02616109      15.02746113      15.02866101      15.02939769      15.02927120      15.02849877      15.02692485      15.02478744      15.02340518      15.02253187      15.02180537      15.02110582      15.02013774      15.01924058
        15.01893440      15.01937336      15.02032397      15.02169377      15.02311808      15.02442052      15.02519484      15.02594097      15.02706433      15.02855608      15.03082213      15.03360237      15.03674657      15.03917881      15.04059628      15.04139375      15.04149838      15.04105573      15.04074106      15.04224807
        15.04501422      15.04849296      15.05325229      15.05841516      15.06409827      15.06991187      15.07539077      15.08042972      15.08584411      15.09256575      15.09941115      15.10653235      15.11175279      15.11415562      15.11487812      15.11482187      15.11591117      15.11904847      15.12369752      15.12660756
        15.07783594      15.07622468      15.07309502      15.06874951      15.06325357      15.05738373      15.05168711      15.04580718      15.03989766      15.03378650      15.02796034      15.02272033      15.01806846      15.01390065      15.01030433      15.00736382      15.00511920      15.00351448      15.00265578      15.00271488
        15.00353916      15.00519344      15.00740256      15.00991818      15.01263050      15.01547202      15.01871189      15.02227010      15.02559870      15.02838301      15.03077338      15.03299963      15.03535139      15.03788384      15.04040579      15.04261602      15.04495404      15.04701387      15.04861268      15.04989801
        15.04996999      15.04897579      15.04777121      15.04703178      15.04728749      15.04844743      15.04953636      15.05071502      15.05163371      15.05137560      15.04980739      15.04749824      15.04479061      15.04212915      15.03960177      15.03771224      15.03584034      15.03386251      15.03209326      15.03121772
        15.03152009      15.03309414      15.03545227      15.03834202      15.04096271      15.04321581      15.04496496      15.04653695      15.04849107      15.05053748      15.05281013      15.05484222      15.05640982      15.05773818      15.05916355      15.06080638      15.06230256      15.06372970      15.06530865      15.06791271
        15.07137384      15.07531048      15.08074867      15.08794341      15.09585029      15.10295974      15.10993842      15.11719234      15.12472111      15.13272000      15.13969849      15.14452253      15.14892627      15.15312200      15.15801567      15.16391798      15.17078224      15.17828543      15.18393663      15.18673381
        15.08659593      15.08468371      15.08151195      15.07735964      15.07240255      15.06712059      15.06162442      15.05577501      15.04972830      15.04332588      15.03680883      15.03049839      15.02422615      15.01806154      15.01259122      15.00800813      15.00445311      15.00193854      15.00061920      15.00063356
        15.00183881      15.00435550      15.00776791      15.01169377      15.01597884      15.02024641      15.02461254      15.02887765      15.03278073      15.03644275      15.03984008      15.04303511      15.04611746      15.04946261      15.05301457      15.05703031      15.06124293      15.06521236      15.06895650      15.07177983
        15.07346167      15.07390134      15.07498937      15.07647553      15.07768393      15.07863278      15.07812935      15.07755174      15.07651108      15.07444493      15.07139002      15.06753669      15.06348221      15.05986076      15.05616146      15.05241276      15.04870432      15.04554623      15.04355374      15.04298127
        15.04419834      15.04701985      15.05081167      15.05481654      15.05818366      15.06095139      15.06331978      15.06506004      15.06638623      15.06740804      15.06858982      15.06982050      15.07150585      15.07444604      15.07877650      15.08384195      15.08890787      15.09363788      15.09775659      15.10115394
        15.10416001      15.10808372      15.11450386      15.12288181      15.13101661      15.13864100      15.14702932      15.15612398      15.16454840      15.17124476      15.17691006      15.18249459      15.18874166      15.19620098      15.20517777      15.21469445      15.22535102      15.23521261      15.24236947      15.24690529
        15.09278149      15.09108519      15.08857679      15.08531111      15.08107314      15.07631931      15.07130308      15.06582375      15.06002240      15.05355419      15.04649275      15.03901834      15.03081478      15.02214026      15.01410644      15.00733075      15.00202948      14.99786601      14.99521527      14.99470651
        14.99654049      15.00070839      15.00630092      15.01267303      15.01932508      15.02534281      15.03086162      15.03624298      15.04128052      15.04616713      15.05064601      15.05471768      15.05892996      15.06377749      15.06921296      15.07473197      15.08067526      15.08692475      15.09322046      15.09827633
        15.10311946      15.10674270      15.10971996      15.11099679      15.11073542      15.10923739      15.10684394      15.10394819      15.10010837      15.09586326      15.09103814      15.08574251      15.08022424      15.07469085      15.06947408      15.06416970      15.05911313      15.05509752      15.05279437      15.05252861
        15.05464239      15.05866053      15.06344435      15.06804784      15.07186515      15.07474323      15.07669732      15.07799725      15.07892156      15.07998478      15.08189628      15.08494651      15.08973774      15.09730827      15.10684253      15.11625960      15.12515608      15.13236717      15.13748473      15.14132735
        15.14488955      15.14992470      15.15699689      15.16473118      15.17252180      15.18139583      15.19059985      15.20034610      15.20852100      15.21494800      15.22204564      15.23184224      15.24114209      15.25036059      15.26042583      15.27227823      15.28590259      15.29716127      15.30581216      15.31088836
        15.09988778      15.09864581      15.09651811      15.09377042      15.09027478      15.08616146      15.08190277      15.07707374      15.07160343      15.06480164      15.05682343      15.04786709      15.03745116      15.02600971      15.01503025      15.00523232      14.99636830      14.98786406      14.98077868      14.97834464
        14.98144104      14.98944871      15.00008745      15.01152525      15.02195453      15.03049678      15.03826239      15.04592845      15.05266530      15.05901059      15.06482065      15.07085313      15.07725983      15.08450626      15.09247695      15.10092780      15.10922725      15.11750294      15.12464159      15.13070344
        15.13628553      15.13997550      15.14112000      15.14025173      15.13835930      15.13506574      15.13078312      15.12546873      15.11927344      15.11297674      15.10652230      15.10021155      15.09377443      15.08699436      15.08036669      15.07374093      15.06739954      15.06221315      15.05904767      15.05866756
        15.06147074      15.06656534      15.07225279      15.07738183      15.08161877      15.08474078      15.08684327      15.08860241      15.09040728      15.09329380      15.09831021      15.10572502      15.11684926      15.13164759      15.14617775      15.15837641      15.16829779      15.17581129      15.18191575      15.18876129
        15.19659312      15.20466619      15.21146778      15.21820197      15.22674825      15.23728100      15.24875414      15.25916492      15.26835499      15.27831867      15.28960816      15.30118967      15.31253447      15.32364401      15.33558967      15.34772756      15.35789278      15.36498036      15.37034367      15.37258933
        15.10918572      15.10801759      15.10614094      15.10392526      15.10156295      15.09860410      15.09511765      15.09045540      15.08442207      15.07656343      15.06717109      15.05652721      15.04410169      15.02980080      15.01530096      15.00053369      14.98387089      14.96357344      14.94401912      14.93592907
        14.94285738      14.96177326      14.98410948      15.00468589      15.02269557      15.03690153      15.04948842      15.06037998      15.06940852      15.07825619      15.08757580      15.09734006      15.10729995      15.11737829      15.12689810      15.13581398      15.14355822      15.15006050      15.15534494      15.15979719
        15.16290460      15.16436814      15.16370974      15.16172661      15.15865968      15.15399149      15.14794921      15.14123083      15.13395344      15.12667019      15.11922340      15.11228960      15.10540930      15.09801507      15.09037083      15.08222853      15.07368371      15.06598297      15.06065501      15.05945135
        15.06304082      15.06953030      15.07657227      15.08290525      15.08819198      15.09252202      15.09637702      15.10045947      15.10561820      15.11315331      15.12420994      15.13916912      15.15763085      15.17710021      15.19295943      15.20514976      15.21573151      15.22627821      15.23833689      15.25296388
        15.26650453      15.27803179      15.29017092      15.30235481      15.31424366      15.32622581      15.33657616      15.34270346      15.34987969      15.36080939      15.37269680      15.38336189      15.39410151      15.40481509      15.41464209      15.42137638      15.42446443      15.42595181      15.42691020      15.42734189
        15.12088053      15.11974266      15.11826594      15.11677766      15.11544410      15.11343296      15.11016115      15.10499547      15.09837115      15.08970323      15.07895754      15.06655049      15.05210085      15.03454181      15.01432068      14.98917162      14.95272876      14.90167326      14.84868011      14.82791797
        14.85159566      14.89849085      14.94727515      14.98770206      15.02041314      15.04496852      15.06525585      15.08216257      15.09623042      15.10985599      15.12303528      15.13503435      15.14558500      15.15423582      15.16102717      15.16652572      15.17125909      15.17509337      15.17867665      15.18097832
        15.18187157      15.18193921      15.18083337      15.17833552      15.17433912      15.16861199      15.16167487      15.15446707      15.14693884      15.13954827      15.13194787      15.12463475      15.11744256      15.10944211      15.10016451      15.08906772      15.07685162      15.06516160      15.05635853      15.05390075
        15.05908843      15.06842520      15.07835151      15.08715021      15.09469330      15.10184014      15.10954924      15.11876573      15.13098550      15.14566280      15.16439342      15.18646712      15.20914595      15.22945730      15.24603997      15.26245917      15.28057776      15.30023264      15.32267838      15.34624905
        15.36660419      15.38295162      15.39896152      15.41397613      15.42438041      15.43015093      15.43304367      15.43365851      15.43609364      15.44230846      15.44986449      15.45765940      15.46341947      15.46767456      15.47040404      15.47153814      15.47129827      15.47062416      15.46951850      15.46890707
        15.13691931      15.13596432      15.13443106      15.13324790      15.13212859      15.13008215      15.12669688      15.12180376      15.11509863      15.10617366      15.09482081      15.08120548      15.06447379      15.04193197      15.00991247      14.95917161      14.87765757      14.75316797      14.60433591      14.52586748
        14.61859024      14.74949876      14.86362187      14.94876286      15.00924381      15.05059515      15.08326026      15.10998723      15.12976330      15.14587734      15.15919382      15.16935314      15.17649498      15.18157661      15.18522325      15.18795115      15.19040996      15.19260400      15.19447431      15.19533670
        15.19546382      15.19492659      15.19334332      15.19038524      15.18593052      15.18029934      15.17388240      15.16704991      15.15991849      15.15300854      15.14608549      15.13886225      15.13105983      15.12146586      15.10992538      15.09537650      15.07831182      15.06097896      15.04562161      15.03926819
        15.04846429      15.06440863      15.07943890      15.09242233      15.10453400      15.11749942      15.13178502      15.14917712      15.16924675      15.19164859      15.21971499      15.24950429      15.27704250      15.30370260      15.32910067      15.35675505      15.38670566      15.41813545      15.44498796      15.46903699
        15.48685452      15.49888522      15.50792834      15.51324378      15.51526712      15.51350056      15.50989465      15.50710829      15.50613698      15.50786627      15.51067747      15.51257103      15.51246597      15.51078895      15.50813213      15.50599870      15.50470486      15.50403992      15.50274363      15.50169642
        15.15933093      15.15830226      15.15695427      15.15565042      15.15379471      15.15155825      15.14943178      15.14601634      15.14002289      15.13111563      15.11932333      15.10501640      15.08594594      15.05424345      14.99970774      14.90704856      14.74416447      14.44982668      13.94900834      13.87544535
        13.90767861      13.10364321      13.20509177      14.01607846      14.46971916      14.73283236      14.88725994      14.98523809      15.04842406      15.09512835      15.13095622      15.15470851      15.17110781      15.18288190      15.19066705      15.19581311      15.19918565      15.20102693      15.20178557      15.20240858
        15.20318716      15.20406181      15.20455491      15.20447793      15.20358335      15.20171807      15.19875093      15.19475969      15.18993667      15.18468125      15.17928124      15.17359439      15.16771297      15.16138623      15.15422614      15.14584820      15.13498273      15.12086796      15.10312361      15.08099742
        15.05480420      15.02214915      15.01213366      15.01220769      14.98301632      14.98324741      15.02315649      15.05662606      15.08205719      15.10307024      15.12271428      15.14383446      15.16813532      15.19661175      15.22702127      15.26194501      15.30289240      15.34306655      15.38123292      15.41992540
        15.45309133      15.48525487      15.51759177      15.54645627      15.56393814      15.57650812      15.58305663      15.58448042      15.58373095      15.57907275      15.57361800      15.56875675      15.56338210      15.55899805      15.55632225      15.55486883      15.55314663      15.55014627      15.54691923      15.54360519
        15.54042801      15.53754386      15.53507650      15.53274547      15.53102192      15.53009156      15.18653947      15.18658423      15.18694182      15.18716475      15.18737587      15.18668096      15.18539220      15.18246806      15.17798650      15.17059552      15.15986151      15.14536178      15.12186846      15.07631987
        14.99370531      14.84980532      14.59764535      14.13685487      13.52977049      12.85903464      13.42067953      12.75627396      12.11975668      11.64576424      11.37471683      10.52229012       9.91379726       9.81285990       8.68270136       7.91751164       7.87369741       4.89731282      11.86023764      12.52716339
        10.30234289      11.05862076       8.84178219       9.65366059       7.98067944       9.37951471      10.63409332      12.02747469      11.43729016      10.10843473       8.74851754       7.93612333       9.52922996       9.29454506      10.81063289      10.47301900      12.09084107      11.74302765       8.80420755       9.66781809
         9.63246863      10.08480301      10.77016976      10.70316927      11.23983637      12.05658724      11.93160229      12.50138755      13.20339512      13.73221048      13.16506943      13.68250953      14.24122836      14.61693230      14.82950713      14.96007472      15.04065439      15.09806533      15.14106749      15.16788615
        15.18448667      15.19533185      15.20211782      15.20609517      15.20788500      15.20782497      15.20713202      15.20685501      15.20726649      15.20812626      15.20872653      15.20889048      15.20846202      15.20745592      15.20563585      15.20313864      15.20007558      15.19652858      15.19292541      15.18867368
        15.18357325      15.17712905      15.16952599      15.16063119      15.14939221      15.13468196      15.11487323      15.08921714      15.05490148      15.01426273      14.97928516      15.01274518      14.97355389      14.94392894      14.91645305      14.90847669      14.86185355      14.82968613      14.82648075      14.77035734
        14.73258133      14.73112192      14.58877310      14.92018331      14.94473357      14.84375727      14.87564150      14.77380465      14.81021882      14.73189103      14.79588458      14.85272039      14.91319958      14.90684623      14.83723756      14.77057103      14.73029839      14.80577695      14.79274811      14.86685257
        14.84661679      14.92933673      14.90147688      14.76903328      14.80760218      14.80624191      14.82584659      14.85560844      14.85283647      14.87483320      14.90876644      14.90264452      14.92690645      14.97810859      15.01175955      14.96904167      15.00802024      15.05418013      15.09331937      15.12487028
        15.15513805      15.18851088      15.22551544      15.26564703      15.31026739      15.35862447      15.40992049      15.45443164      15.49320270      15.53163845      15.56151524      15.58814889      15.61146614      15.62747875      15.63320862      15.63485159      15.63335308      15.62878047      15.62272356      15.61517585
        15.60782592      15.60187374      15.59693369      15.59270254      15.58925207      15.58609325      15.58260615      15.57958101      15.57651697      15.57315847      15.56976184      15.56568236      15.56150642      15.55731417      15.55430861      15.55259674      15.22618463      15.22938935      15.23220389      15.23383396
        15.23560305      15.23590488      15.23581301      15.23532107      15.23353650      15.22744685      15.21725419      15.19875127      15.16614339      15.10224528      14.99157919      14.81962716      14.55448068      14.13716162      13.55306251      12.86161403      13.01029565      13.43197560      13.50271371      13.73309108
        14.25676984      14.59687562      14.80948591      14.94487522      15.03348790      15.09869760      15.14583314      15.17351752      15.18904147      15.19800357      15.20258712      15.20451743      15.20477065      15.20395551      15.20338919      15.20368025      15.20491430      15.20673585      15.20847439      15.20985873
        15.21080672      15.21139171      15.21145755      15.21102466      15.21002083      15.20830235      15.20594402      15.20224118      15.19727416      15.19092888      15.18341993      15.17466782      15.16366372      15.15005039      15.13161157      15.10707851      15.07518113      15.02820823      14.96911857      14.96600955
        15.01066835      15.00851130      15.02380703      15.07846751      15.12379628      15.16526802      15.20669107      15.25133611      15.29949067      15.35215463      15.40723255      15.46023618      15.50705086      15.54382741      15.57447475      15.60317477      15.62311860      15.63936863      15.65113293      15.65744814
        15.65772215      15.65557672      15.65170368      15.64627705      15.63999616      15.63284470      15.62664522      15.62140863      15.61708176      15.61360314      15.61075365      15.60823137      15.60585353      15.60354028      15.60042547      15.59629326      15.59146671      15.58616034      15.58074820      15.57588207
        15.57201562      15.56970108      15.29065467      15.29176607      15.29289741      15.29448914      15.29666997      15.29761545      15.29939496      15.30073055      15.30023432      15.29302582      15.27666095      15.24687165      15.19712548      15.11244280      14.98785328      14.82458955      14.62064048      14.36644963
        14.10152943      13.98833007      14.14077294      14.40773123      14.64575625      14.82039969      14.94528676      15.03287025      15.09770794      15.14361483      15.16946985      15.18122518      15.18595769      15.18796555      15.18933124      15.19066068      15.19199298      15.19373338      15.19601195      15.19892092
        15.20228702      15.20540339      15.20822289      15.21071975      15.21288198      15.21460261      15.21580074      15.21629292      15.21577932      15.21423648      15.21140059      15.20717694      15.20158657      15.19493355      15.18742897      15.17854536      15.16772879      15.15368073      15.13544382      15.11381408
        15.09016806      15.07760717      15.09611108      15.13594546      15.18161945      15.22995088      15.27814595      15.33120481      15.38842302      15.44823544      15.50194992      15.54465696      15.57684628      15.59975906      15.61553687      15.62987935      15.63941602      15.64730400      15.65311702      15.65675251
        15.65711031      15.65566237      15.65296856      15.64896079      15.64426831      15.63882495      15.63437386      15.63090011      15.62817150      15.62615677      15.62451870      15.62277647      15.62069496      15.61796680      15.61459394      15.61030710      15.60518683      15.59981577      15.59467586      15.59034436
        15.58713770      15.58529823      15.37227888      15.36986042      15.36860304      15.37234920      15.37567310      15.37665183      15.37797868      15.37582216      15.36783898      15.34893104      15.31551671      15.26601762      15.19787620      15.10436132      14.98970728      14.86210268      14.71907711      14.55551629
        14.40885011      14.35772693      14.42753056      14.57118381      14.72751928      14.85842508      14.95969539      15.03312168      15.08767160      15.12623267      15.14721929      15.15533888      15.15879480      15.16244901      15.16685962      15.17181591      15.17704676      15.18198786      15.18656841      15.19119390
        15.19607467      15.20056156      15.20455171      15.20835218      15.21187494      15.21486837      15.21724707      15.21884675      15.21940392      15.21899518      15.21752105      15.21478717      15.21074537      15.20594723      15.20104691      15.19592600      15.19014190      15.18250604      15.17227192      15.16096734
        15.15331290      15.15538013      15.17614426      15.21307905      15.25871267      15.30857558      15.36028862      15.41776095      15.47486921      15.52505607      15.56154188      15.58572998      15.59993761      15.60647197      15.61084271      15.61801312      15.62454165      15.63107044      15.63704354      15.64205177
        15.64457672      15.64464986      15.64327614      15.64090059      15.63822997      15.63513778      15.63300278      15.63163383      15.63079782      15.63029421      15.62973196      15.62880156      15.62720364      15.62488766      15.62208899      15.61879853      15.61499966      15.61089471      15.60707081      15.60418082
        15.60228212      15.60123313      15.47108529      15.47022737      15.46962707      15.47094289      15.46927970      15.46320396      15.45367209      15.43794494      15.41308845      15.37286069      15.31668351      15.24972069      15.17656314      15.09489398      15.00427618      14.90708263      14.80730533      14.70774131
        14.63010198      14.60853772      14.64389555      14.72504503      14.82039066      14.90356134      14.97032182      15.02023440      15.05999851      15.09044197      15.10919250      15.11969486      15.12686332      15.13450616      15.14312652      15.15217779      15.16062748      15.16818015      15.17499838      15.18144611
        15.18791617      15.19401125      15.19959022      15.20463441      15.20926303      15.21343690      15.21696114      15.21971297      15.22152201      15.22252510      15.22267113      15.22191042      15.22020179      15.21815735      15.21682470      15.21630893      15.21607702      15.21559760      15.21452552      15.21422360
        15.21817105      15.22956632      15.25317518      15.28823604      15.32999117      15.37637047      15.42457997      15.47285003      15.51411762      15.54400533      15.56108844      15.57010687      15.57468491      15.57890579      15.58442104      15.59248625      15.60096312      15.60934762      15.61692527      15.62276029
        15.62565618      15.62658930      15.62672220      15.62654027      15.62642118      15.62613389      15.62644738      15.62717312      15.62815965      15.62919881      15.62995524      15.63019112      15.62975134      15.62865047      15.62709674      15.62527293      15.62326755      15.62136873      15.61961574      15.61807548
        15.61685826      15.61591434      15.57790213      15.57534418      15.57083635      15.56296161      15.54661802      15.52358197      15.49622991      15.46112277      15.41538808      15.35605437      15.28703651      15.21704868      15.14918599      15.07768922      15.00391590      14.93242310      14.86686319      14.81211121
        14.77427996      14.76515157      14.78398420      14.82558230      14.87466032      14.92112850      14.96217008      14.99668968      15.02712101      15.05300066      15.07209970      15.08603662      15.09774009      15.10876992      15.12001162      15.13188928      15.14325319      15.15318316      15.16178516      15.16966349