# File generated by Flopy version 3.7.0 on 06/11/2024 at 13:54:38.
BEGIN options
END options

BEGIN dimensions
  MAXBOUND  7355
END dimensions

BEGIN period  1
  1 1 1.47981444E-08
  1 2 1.82372878E-08
  1 3 1.77190464E-08
  1 4 1.83416582E-08
  1 5 1.86133297E-08
  1 6 1.65675618E-08
  1 7 1.88369216E-08
  1 8 2.34785357E-08
  1 9 2.00315994E-08
  1 10 1.59692122E-08
  1 11 1.40856219E-08
  1 12 1.31862765E-08
  1 13 1.32389773E-08
  1 14 1.38716870E-08
  1 15 1.45287099E-08
  1 16 1.82375711E-08
  1 17 1.77969751E-08
  1 18 1.58270947E-08
  1 19 1.41475368E-08
  1 20 1.58404749E-08
  1 21 1.68622195E-08
  1 22 1.33809806E-08
  1 23 1.37309707E-08
  1 24 1.56670369E-08
  1 25 1.56140554E-08
  1 26 1.49103640E-08
  1 27 1.30635018E-08
  1 28 1.58894083E-08
  1 29 1.85461486E-08
  1 30 1.74050657E-08
  1 31 1.68721032E-08
  1 32 1.41556498E-08
  1 33 1.50694007E-08
  1 34 1.79577442E-08
  1 35 1.79766648E-08
  1 36 1.56747914E-08
  1 37 1.72518811E-08
  1 38 1.43232435E-08
  1 39 1.47110861E-08
  1 40 1.58203803E-08
  1 41 1.64039279E-08
  1 42 1.52444187E-08
  1 43 1.26711049E-08
  1 44 1.22266102E-08
  1 45 1.16947485E-08
  1 46 1.29452939E-08
  1 47 1.32621850E-08
  1 48 1.24673961E-08
  1 49 1.41566053E-08
  1 50 1.52459806E-08
  1 51 1.46526255E-08
  1 52 1.32259254E-08
  1 53 1.03557295E-08
  1 54 1.36951231E-08
  1 55 2.51928798E-08
  1 56 2.68920009E-08
  1 57 2.70510911E-08
  1 58 2.97179371E-08
  1 59 2.22741024E-08
  1 60 1.40266138E-08
  1 61 1.23107508E-08
  1 62 1.26822325E-08
  1 63 9.76922272E-09
  1 64 8.95931642E-09
  1 65 9.38389500E-09
  1 66 1.01777661E-08
  1 67 1.36531386E-08
  1 68 1.49264785E-08
  1 69 1.40439963E-08
  1 70 1.38831041E-08
  1 71 1.34560301E-08
  1 72 1.69702972E-08
  1 73 1.46800716E-08
  1 74 1.54203136E-08
  1 75 2.27989987E-08
  1 76 3.08134853E-08
  1 77 3.11045774E-08
  1 78 3.20710646E-08
  1 79 2.55133476E-08
  1 80 2.46536387E-08
  1 81 2.85894799E-08
  1 82 2.81671132E-08
  1 83 2.09593662E-08
  1 84 1.38041289E-08
  1 85 9.04071116E-09
  1 86 9.19519252E-09
  1 87 1.04638815E-08
  1 88 1.32738638E-08
  1 89 1.43277419E-08
  1 90 1.35212590E-08
  1 91 1.53508628E-08
  1 92 1.49586554E-08
  1 93 1.40733548E-08
  1 94 1.35214637E-08
  1 95 1.36150749E-08
  1 96 1.36776045E-08
  1 97 1.79641019E-08
  1 98 2.09450739E-08
  1 99 2.13629632E-08
  1 100 2.14267530E-08
  1 101 1.28515489E-08
  1 102 1.59141123E-08
  1 103 1.90725970E-08
  1 104 1.75343777E-08
  1 105 1.92763858E-08
  1 106 1.64286065E-08
  1 107 1.69008619E-08
  1 108 2.01886849E-08
  1 109 2.21694588E-08
  1 110 1.72334394E-08
  1 111 1.44694692E-08
  1 112 1.27154455E-08
  1 113 1.17849649E-08
  1 114 1.24854896E-08
  1 115 1.18390274E-08
  1 116 1.63039256E-08
  1 117 1.87835982E-08
  1 118 1.74536910E-08
  1 119 1.44796353E-08
  1 120 1.43203622E-08
  1 121 1.73678979E-08
  1 122 1.49375934E-08
  1 123 1.43434703E-08
  1 124 1.51718181E-08
  1 125 1.70193850E-08
  1 126 1.46849438E-08
  1 127 1.14463207E-08
  1 128 1.38812007E-08
  1 129 1.69030953E-08
  1 130 1.68770907E-08
  1 131 1.68256092E-08
  1 132 1.56314359E-08
  1 133 1.53703817E-08
  1 134 1.90034781E-08
  1 135 2.06650871E-08
  1 136 1.61938376E-08
  1 137 1.64085653E-08
  1 138 1.61586234E-08
  1 139 1.38518973E-08
  1 140 1.30798460E-08
  1 141 1.54596981E-08
  1 142 1.45485479E-08
  1 143 1.17154114E-08
  1 144 1.19787371E-08
  1 145 1.17367850E-08
  1 146 1.38882751E-08
  1 147 1.29458061E-08
  1 148 1.30729181E-08
  1 149 1.31953412E-08
  1 150 1.64894309E-08
  1 151 1.41941765E-08
  1 152 1.48977709E-08
  1 153 1.08899468E-08
  1 154 1.22437379E-08
  1 155 1.94647355E-08
  1 156 2.63076193E-08
  1 157 2.62051067E-08
  1 158 2.82269147E-08
  1 159 2.35440738E-08
  1 160 1.63253597E-08
  1 161 1.41778039E-08
  1 162 1.14713800E-08
  1 163 9.46498229E-09
  1 164 7.67306182E-09
  1 165 8.05683244E-09
  1 166 9.80250617E-09
  1 167 1.19152403E-08
  1 168 1.27844781E-08
  1 169 1.34077271E-08
  1 170 1.56489278E-08
  1 171 1.42618843E-08
  1 172 1.58267211E-08
  1 173 1.38080460E-08
  1 174 1.40485809E-08
  1 175 1.82196254E-08
  1 176 2.95714909E-08
  1 177 3.26863976E-08
  1 178 3.47657992E-08
  1 179 3.07737582E-08
  1 180 2.55760509E-08
  1 181 2.83425954E-08
  1 182 2.98139761E-08
  1 183 2.38276899E-08
  1 184 1.51239378E-08
  1 185 9.37751449E-09
  1 186 8.04274994E-09
  1 187 9.94147967E-09
  1 188 1.11981488E-08
  1 189 1.31704726E-08
  1 190 1.35200512E-08
  1 191 1.41682846E-08
  1 192 1.34683935E-08
  1 193 1.32062891E-08
  1 194 1.22287094E-08
  1 195 1.26889128E-08
  1 196 1.25685406E-08
  1 197 1.61752027E-08
  1 198 2.31520951E-08
  1 199 2.52025098E-08
  1 200 2.34296438E-08
  1 201 1.21592061E-08
  1 202 1.54438047E-08
  1 203 1.74776798E-08
  1 204 1.78212225E-08
  1 205 1.83369499E-08
  1 206 1.82877881E-08
  1 207 1.72103589E-08
  1 208 1.85021125E-08
  1 209 2.07870332E-08
  1 210 1.88697216E-08
  1 211 1.54222422E-08
  1 212 1.41815203E-08
  1 213 1.17331276E-08
  1 214 1.15320213E-08
  1 215 1.06342950E-08
  1 216 1.32005739E-08
  1 217 1.81197751E-08
  1 218 1.70944599E-08
  1 219 1.37198614E-08
  1 220 1.41437767E-08
  1 221 1.77635142E-08
  1 222 1.71202148E-08
  1 223 1.54487337E-08
  1 224 1.51051364E-08
  1 225 1.58954310E-08
  1 226 1.58027043E-08
  1 227 1.05252092E-08
  1 228 1.10354619E-08
  1 229 1.40012911E-08
  1 230 1.66140338E-08
  1 231 1.66845068E-08
  1 232 1.73772867E-08
  1 233 1.58711472E-08
  1 234 1.95085151E-08
  1 235 2.38137229E-08
  1 236 2.03889506E-08
  1 237 1.61148605E-08
  1 238 1.64108285E-08
  1 239 1.41564011E-08
  1 240 1.17747274E-08
  1 241 1.29989355E-08
  1 242 1.40746873E-08
  1 243 1.00448817E-08
  1 244 1.14466948E-08
  1 245 1.17960269E-08
  1 246 1.26998019E-08
  1 247 1.26743735E-08
  1 248 1.27046438E-08
  1 249 1.47787237E-08
  1 250 1.67732722E-08
  1 251 1.60073616E-08
  1 252 1.51381016E-08
  1 253 1.28136097E-08
  1 254 1.24080090E-08
  1 255 1.50870261E-08
  1 256 2.39548398E-08
  1 257 2.65740937E-08
  1 258 2.83076048E-08
  1 259 2.48088412E-08
  1 260 1.79191711E-08
  1 261 1.74899123E-08
  1 262 1.30511708E-08
  1 263 9.19636551E-09
  1 264 7.48488779E-09
  1 265 7.81794347E-09
  1 266 8.64361851E-09
  1 267 1.15349986E-08
  1 268 1.20747922E-08
  1 269 1.33681413E-08
  1 270 1.54833543E-08
  1 271 1.61980600E-08
  1 272 1.44044163E-08
  1 273 1.30855311E-08
  1 274 1.17126762E-08
  1 275 1.46153256E-08
  1 276 2.57018967E-08
  1 277 3.01937628E-08
  1 278 3.62200297E-08
  1 279 3.31799442E-08
  1 280 2.79170843E-08
  1 281 2.69159665E-08
  1 282 2.97066919E-08
  1 283 2.80147663E-08
  1 284 1.73183393E-08
  1 285 1.04582059E-08
  1 286 7.90034432E-09
  1 287 9.24658465E-09
  1 288 1.02257193E-08
  1 289 1.16543841E-08
  1 290 1.20200355E-08
  1 291 1.34836518E-08
  1 292 1.38086578E-08
  1 293 1.24112187E-08
  1 294 1.20477991E-08
  1 295 1.13177891E-08
  1 296 1.20897557E-08
  1 297 1.49863515E-08
  1 298 2.23983123E-08
  1 299 2.58476504E-08
  1 300 2.53876995E-08
  1 301 1.03560382E-08
  1 302 1.39725119E-08
  1 303 1.68926933E-08
  1 304 1.81255549E-08
  1 305 1.82737463E-08
  1 306 1.94587650E-08
  1 307 1.84631163E-08
  1 308 1.83927223E-08
  1 309 1.92187269E-08
  1 310 1.91172498E-08
  1 311 1.78119597E-08
  1 312 1.42967445E-08
  1 313 1.34086516E-08
  1 314 1.08030903E-08
  1 315 9.33018440E-09
  1 316 1.04209289E-08
  1 317 1.59745746E-08
  1 318 1.68206645E-08
  1 319 1.42842966E-08
  1 320 1.32246300E-08
  1 321 1.66023937E-08
  1 322 1.95554284E-08
  1 323 1.70363387E-08
  1 324 1.57313063E-08
  1 325 1.56441221E-08
  1 326 1.48171067E-08
  1 327 9.56226578E-09
  1 328 8.80503251E-09
  1 329 1.12285488E-08
  1 330 1.60105270E-08
  1 331 1.75475381E-08
  1 332 1.74912608E-08
  1 333 1.72721998E-08
  1 334 1.90841311E-08
  1 335 2.49262483E-08
  1 336 2.64067914E-08
  1 337 1.83416256E-08
  1 338 1.64846061E-08
  1 339 1.52557916E-08
  1 340 1.20051505E-08
  1 341 1.03295531E-08
  1 342 1.21451700E-08
  1 343 1.05935639E-08
  1 344 1.03812982E-08
  1 345 1.20647684E-08
  1 346 1.20974756E-08
  1 347 1.31765518E-08
  1 348 1.21530167E-08
  1 349 1.58309362E-08
  1 350 1.76142150E-08
  1 351 1.83764414E-08
  1 352 1.61102973E-08
  1 353 1.44880081E-08
  1 354 1.24524227E-08
  1 355 1.39191550E-08
  1 356 2.11242439E-08
  1 357 2.54168526E-08
  1 358 2.88216317E-08
  1 359 2.54978504E-08
  1 360 1.93721304E-08
  1 361 2.00683121E-08
  1 362 1.43575316E-08
  1 363 9.65614325E-09
  1 364 8.38231171E-09
  1 365 7.53592005E-09
  1 366 8.40918012E-09
  1 367 1.06961494E-08
  1 368 1.19819578E-08
  1 369 1.42313921E-08
  1 370 1.55330856E-08
  1 371 1.71483035E-08
  1 372 1.52989427E-08
  1 373 1.19110671E-08
  1 374 1.01392575E-08
  1 375 1.29172472E-08
  1 376 2.07752265E-08
  1 377 3.04385980E-08
  1 378 3.44127126E-08
  1 379 3.43495471E-08
  1 380 2.75014472E-08
  1 381 2.80838079E-08
  1 382 2.89197858E-08
  1 383 3.13519910E-08
  1 384 2.07319836E-08
  1 385 1.24037392E-08
  1 386 7.99445257E-09
  1 387 8.83508151E-09
  1 388 1.03287997E-08
  1 389 1.05699101E-08
  1 390 1.19420509E-08
  1 391 1.23016819E-08
  1 392 1.30257901E-08
  1 393 1.14531672E-08
  1 394 1.11524416E-08
  1 395 1.09824877E-08
  1 396 1.23002629E-08
  1 397 1.39667984E-08
  1 398 1.80249570E-08
  1 399 2.43855342E-08
  1 400 2.69409486E-08
  1 401 8.38249612E-09
  1 402 1.12582250E-08
  1 403 1.49620539E-08
  1 404 1.73260606E-08
  1 405 1.88265489E-08
  1 406 1.73332507E-08
  1 407 1.92200304E-08
  1 408 1.97271670E-08
  1 409 1.99064684E-08
  1 410 1.97127303E-08
  1 411 1.92248212E-08
  1 412 1.67847404E-08
  1 413 1.40698796E-08
  1 414 1.15785235E-08
  1 415 9.74528791E-09
  1 416 9.18991254E-09
  1 417 1.35269813E-08
  1 418 1.69505453E-08
  1 419 1.42319431E-08
  1 420 1.23960010E-08
  1 421 1.58216102E-08
  1 422 2.09388512E-08
  1 423 1.95629122E-08
  1 424 1.53678078E-08
  1 425 1.55343085E-08
  1 426 1.44478053E-08
  1 427 1.01136398E-08
  1 428 7.40162126E-09
  1 429 9.00886563E-09
  1 430 1.39927010E-08
  1 431 1.75648253E-08
  1 432 1.72481409E-08
  1 433 1.76629546E-08
  1 434 2.03190125E-08
  1 435 2.41279295E-08
  1 436 3.18267072E-08
  1 437 2.46322506E-08
  1 438 1.67799137E-08
  1 439 1.65842366E-08
  1 440 1.39504170E-08
  1 441 9.63869984E-09
  1 442 1.04158585E-08
  1 443 1.09372771E-08
  1 444 1.03025990E-08
  1 445 1.19047259E-08
  1 446 1.18613106E-08
  1 447 1.31572903E-08
  1 448 1.22521381E-08
  1 449 1.35550666E-08
  1 450 1.77908996E-08
  1 451 1.91328477E-08
  1 452 1.77218143E-08
  1 453 1.48239622E-08
  1 454 1.43488904E-08
  1 455 1.40323498E-08
  1 456 1.69927145E-08
  1 457 2.18151923E-08
  1 458 2.85525736E-08
  1 459 2.63810374E-08
  1 460 2.09517314E-08
  1 461 2.00658675E-08
  1 462 1.73469470E-08
  1 463 1.12668386E-08
  1 464 9.40962132E-09
  1 465 8.48454843E-09
  1 466 8.44117856E-09
  1 467 9.21210020E-09
  1 468 1.23122628E-08
  1 469 1.45228212E-08
  1 470 1.64754257E-08
  1 471 1.59670583E-08
  1 472 1.60776939E-08
  1 473 1.14808800E-08
  1 474 9.41019160E-09
  1 475 1.07401329E-08
  1 476 1.59720424E-08
  1 477 2.73717649E-08
  1 478 3.27568326E-08
  1 479 3.44602825E-08
  1 480 2.81516074E-08
  1 481 2.71914658E-08
  1 482 2.79486051E-08
  1 483 2.97898202E-08
  1 484 2.46495453E-08
  1 485 1.36851607E-08
  1 486 8.93245540E-09
  1 487 8.41756376E-09
  1 488 1.06154479E-08
  1 489 1.07853283E-08
  1 490 1.25887705E-08
  1 491 1.20013724E-08
  1 492 1.18424483E-08
  1 493 1.21327947E-08
  1 494 1.08254020E-08
  1 495 1.10385798E-08
  1 496 1.24893790E-08
  1 497 1.44186411E-08
  1 498 1.75589690E-08
  1 499 2.15694072E-08
  1 500 2.52657115E-08
  1 501 7.62884018E-09
  1 502 8.89023683E-09
  1 503 1.21476670E-08
  1 504 1.57578928E-08
  1 505 1.72716207E-08
  1 506 1.57741332E-08
  1 507 1.89827983E-08
  1 508 2.01949692E-08
  1 509 2.16262473E-08
  1 510 2.18062700E-08
  1 511 1.98353396E-08
  1 512 2.06455020E-08
  1 513 1.60829729E-08
  1 514 1.31716754E-08
  1 515 1.05561868E-08
  1 516 9.00075983E-09
  1 517 1.19181339E-08
  1 518 1.55510673E-08
  1 519 1.41399798E-08
  1 520 1.27783292E-08
  1 521 1.36623068E-08
  1 522 2.11133836E-08
  1 523 2.01477997E-08
  1 524 1.70847692E-08
  1 525 1.49998998E-08
  1 526 1.46269827E-08
  1 527 1.01165913E-08
  1 528 7.04964017E-09
  1 529 7.58164140E-09
  1 530 1.04154664E-08
  1 531 1.58845153E-08
  1 532 1.84056590E-08
  1 533 1.72047818E-08
  1 534 1.87270524E-08
  1 535 2.50815880E-08
  1 536 3.32682416E-08
  1 537 3.28892797E-08
  1 538 2.19466399E-08
  1 539 1.73750340E-08
  1 540 1.53377227E-08
  1 541 1.11465795E-08
  1 542 8.75384376E-09
  1 543 1.05431852E-08
  1 544 1.10229669E-08
  1 545 1.16558385E-08
  1 546 1.18534299E-08
  1 547 1.41241945E-08
  1 548 1.26459538E-08
  1 549 1.23444931E-08
  1 550 1.58431351E-08
  1 551 1.77959931E-08
  1 552 1.71345014E-08
  1 553 1.51337763E-08
  1 554 1.44177719E-08
  1 555 1.40639519E-08
  1 556 1.58224346E-08
  1 557 1.95973028E-08
  1 558 2.37772995E-08
  1 559 2.68489973E-08
  1 560 2.11176598E-08
  1 561 2.12528860E-08
  1 562 1.82155582E-08
  1 563 1.26866415E-08
  1 564 9.36078528E-09
  1 565 9.02224043E-09
  1 566 8.88511241E-09
  1 567 9.51243276E-09
  1 568 1.08158367E-08
  1 569 1.47328703E-08
  1 570 1.82025336E-08
  1 571 1.60231021E-08
  1 572 1.73544601E-08
  1 573 1.28825105E-08
  1 574 8.73178715E-09
  1 575 9.93283242E-09
  1 576 1.34067642E-08
  1 577 2.27522978E-08
  1 578 3.15516685E-08
  1 579 3.32444130E-08
  1 580 2.94484370E-08
  1 581 2.68214658E-08
  1 582 2.50248701E-08
  1 583 2.38873066E-08
  1 584 2.58361100E-08
  1 585 1.54529395E-08
  1 586 1.05484042E-08
  1 587 8.38506493E-09
  1 588 1.08697144E-08
  1 589 1.13501227E-08
  1 590 1.32164017E-08
  1 591 1.39362389E-08
  1 592 1.12390409E-08
  1 593 1.29272398E-08
  1 594 1.18279444E-08
  1 595 1.13633861E-08
  1 596 1.35578067E-08
  1 597 1.65575273E-08
  1 598 1.78630667E-08
  1 599 2.15297162E-08
  1 600 2.13020422E-08
  1 601 6.66837575E-09
  1 602 7.53227122E-09
  1 603 9.88433823E-09
  1 604 1.49289021E-08
  1 605 1.59755025E-08
  1 606 1.35341638E-08
  1 607 1.61355633E-08
  1 608 2.03027221E-08
  1 609 2.47467246E-08
  1 610 2.58326013E-08
  1 611 2.11202729E-08
  1 612 2.29818488E-08
  1 613 1.90957655E-08
  1 614 1.48916402E-08
  1 615 1.16045078E-08
  1 616 9.47098329E-09
  1 617 1.12592395E-08
  1 618 1.43123032E-08
  1 619 1.40261703E-08
  1 620 1.16110999E-08
  1 621 1.26269103E-08
  1 622 2.11345994E-08
  1 623 2.08490281E-08
  1 624 1.92904289E-08
  1 625 1.61952466E-08
  1 626 1.60534558E-08
  1 627 1.05452819E-08
  1 628 7.38466650E-09
  1 629 7.23126978E-09
  1 630 9.10412130E-09
  1 631 1.42606253E-08
  1 632 1.96382946E-08
  1 633 1.73890827E-08
  1 634 1.71601671E-08
  1 635 2.38472665E-08
  1 636 3.24311813E-08
  1 637 3.95415693E-08
  1 638 3.02353184E-08
  1 639 2.08671166E-08
  1 640 1.63360956E-08
  1 641 1.21492596E-08
  1 642 8.28733375E-09
  1 643 9.94736239E-09
  1 644 1.13124453E-08
  1 645 1.20874197E-08
  1 646 1.16236069E-08
  1 647 1.36635881E-08
  1 648 1.55124317E-08
  1 649 1.21727611E-08
  1 650 1.49072605E-08
  1 651 1.77805070E-08
  1 652 1.63393642E-08
  1 653 1.60347254E-08
  1 654 1.54494050E-08
  1 655 1.47574536E-08
  1 656 1.65395355E-08
  1 657 1.90365528E-08
  1 658 2.18930800E-08
  1 659 2.60457159E-08
  1 660 2.15302190E-08
  1 661 2.15473619E-08
  1 662 1.85734444E-08
  1 663 1.40478949E-08
  1 664 1.04008453E-08
  1 665 9.14809386E-09
  1 666 9.42027751E-09
  1 667 9.63814217E-09
  1 668 9.95382709E-09
  1 669 1.38528660E-08
  1 670 1.89306861E-08
  1 671 1.71423849E-08
  1 672 1.81760375E-08
  1 673 1.58685871E-08
  1 674 8.80302914E-09
  1 675 9.46415870E-09
  1 676 1.22791363E-08
  1 677 1.76498940E-08
  1 678 2.89446919E-08
  1 679 2.91499176E-08
  1 680 2.66269027E-08
  1 681 2.63016013E-08
  1 682 2.34019932E-08
  1 683 1.94881610E-08
  1 684 2.10090766E-08
  1 685 1.68577741E-08
  1 686 1.13620620E-08
  1 687 9.71560796E-09
  1 688 1.04688705E-08
  1 689 1.23602080E-08
  1 690 1.31413254E-08
  1 691 1.62064039E-08
  1 692 1.24894585E-08
  1 693 1.26807471E-08
  1 694 1.29613860E-08
  1 695 1.26810021E-08
  1 696 1.33705886E-08
  1 697 1.66497804E-08
  1 698 1.84943458E-08
  1 699 2.06298249E-08
  1 700 1.89082931E-08
  1 701 6.80395929E-09
  1 702 6.25548055E-09
  1 703 8.40532786E-09
  1 704 1.29782937E-08
  1 705 1.59578818E-08
  1 706 1.33778319E-08
  1 707 1.20150011E-08
  1 708 1.71050122E-08
  1 709 2.41787195E-08
  1 710 2.72159194E-08
  1 711 2.20922544E-08
  1 712 2.21709486E-08
  1 713 2.19444798E-08
  1 714 1.72991077E-08
  1 715 1.35332516E-08
  1 716 1.02863145E-08
  1 717 1.05403735E-08
  1 718 1.37995596E-08
  1 719 1.36393373E-08
  1 720 1.16793541E-08
  1 721 1.12209999E-08
  1 722 1.85593723E-08
  1 723 2.13547638E-08
  1 724 1.95373847E-08
  1 725 1.86388178E-08
  1 726 1.67350019E-08
  1 727 1.24406024E-08
  1 728 8.64039878E-09
  1 729 7.91580137E-09
  1 730 9.01610574E-09
  1 731 1.27388662E-08
  1 732 1.97989945E-08
  1 733 1.95447464E-08
  1 734 1.70430160E-08
  1 735 2.26331143E-08
  1 736 3.13390451E-08
  1 737 3.97457479E-08
  1 738 3.56451674E-08
  1 739 2.63935152E-08
  1 740 1.79927830E-08
  1 741 1.24129360E-08
  1 742 8.83180377E-09
  1 743 9.82417671E-09
  1 744 9.39816067E-09
  1 745 1.17696772E-08
  1 746 1.25560593E-08
  1 747 1.22639186E-08
  1 748 1.55537609E-08
  1 749 1.39412728E-08
  1 750 1.40166704E-08
  1 751 1.78963041E-08
  1 752 1.69078958E-08
  1 753 1.62465489E-08
  1 754 1.70887591E-08
  1 755 1.57265727E-08
  1 756 1.67670975E-08
  1 757 1.98107843E-08
  1 758 2.15022870E-08
  1 759 2.28608561E-08
  1 760 2.10099740E-08
  1 761 1.99473596E-08
  1 762 1.85326025E-08
  1 763 1.41268811E-08
  1 764 1.16879177E-08
  1 765 8.79216793E-09
  1 766 8.95510349E-09
  1 767 9.62387695E-09
  1 768 9.98545616E-09
  1 769 1.26601221E-08
  1 770 1.81915940E-08
  1 771 1.71934988E-08
  1 772 1.88936426E-08
  1 773 2.00357618E-08
  1 774 1.17030285E-08
  1 775 9.43532585E-09
  1 776 1.12421742E-08
  1 777 1.51171454E-08
  1 778 2.42026684E-08
  1 779 2.50398219E-08
  1 780 2.35771754E-08
  1 781 2.36870796E-08
  1 782 2.36040759E-08
  1 783 1.72830932E-08
  1 784 1.66596670E-08
  1 785 1.58973400E-08
  1 786 1.27394203E-08
  1 787 1.08445447E-08
  1 788 1.04468862E-08
  1 789 1.33499722E-08
  1 790 1.39879592E-08
  1 791 1.69344116E-08
  1 792 1.44154777E-08
  1 793 1.35378154E-08
  1 794 1.44095647E-08
  1 795 1.44341092E-08
  1 796 1.31335328E-08
  1 797 1.64331405E-08
  1 798 1.77116235E-08
  1 799 1.91275255E-08
  1 800 1.85533467E-08
  1 801 7.35822850E-09
  1 802 5.87689522E-09
  1 803 7.39027599E-09
  1 804 1.04072314E-08
  1 805 1.39001790E-08
  1 806 1.28818011E-08
  1 807 9.93744148E-09
  1 808 1.30932248E-08
  1 809 2.05175895E-08
  1 810 2.69045513E-08
  1 811 2.39332750E-08
  1 812 2.30862454E-08
  1 813 2.35626723E-08
  1 814 1.89323204E-08
  1 815 1.57357327E-08
  1 816 1.20522496E-08
  1 817 1.04824914E-08
  1 818 1.24147424E-08
  1 819 1.39004776E-08
  1 820 1.04146181E-08
  1 821 1.05950808E-08
  1 822 1.46741108E-08
  1 823 2.04796104E-08
  1 824 1.99463871E-08
  1 825 1.98907917E-08
  1 826 1.72532960E-08
  1 827 1.37311437E-08
  1 828 1.06903400E-08
  1 829 9.02876162E-09
  1 830 9.75880468E-09
  1 831 1.21413186E-08
  1 832 1.86055217E-08
  1 833 2.09866898E-08
  1 834 1.75830422E-08
  1 835 2.09575945E-08
  1 836 2.71789327E-08
  1 837 3.67022307E-08
  1 838 3.83148308E-08
  1 839 3.18011318E-08
  1 840 2.14583984E-08
  1 841 1.32546834E-08
  1 842 1.02757393E-08
  1 843 9.36803551E-09
  1 844 8.52918956E-09
  1 845 9.92689098E-09
  1 846 1.22649901E-08
  1 847 1.26814150E-08
  1 848 1.55231512E-08
  1 849 1.58009951E-08
  1 850 1.49282643E-08
  1 851 1.61819362E-08
  1 852 1.74327347E-08
  1 853 1.52066934E-08
  1 854 1.62873471E-08
  1 855 1.82873474E-08
  1 856 1.77177722E-08
  1 857 2.02159008E-08
  1 858 2.20469799E-08
  1 859 2.25912010E-08
  1 860 2.04559637E-08
  1 861 1.81953138E-08
  1 862 1.61653947E-08
  1 863 1.57871531E-08
  1 864 1.22363869E-08
  1 865 9.93117497E-09
  1 866 8.29305513E-09
  1 867 8.81525639E-09
  1 868 9.24587003E-09
  1 869 1.16243851E-08
  1 870 1.64291154E-08
  1 871 1.69253894E-08
  1 872 1.83278348E-08
  1 873 2.12398703E-08
  1 874 1.54810648E-08
  1 875 1.04393621E-08
  1 876 1.07873287E-08
  1 877 1.26236806E-08
  1 878 2.02970794E-08
  1 879 2.47491545E-08
  1 880 2.37917553E-08
  1 881 2.04516843E-08
  1 882 2.14461851E-08
  1 883 1.75885330E-08
  1 884 1.45107222E-08
  1 885 1.44539982E-08
  1 886 1.36477894E-08
  1 887 1.25044302E-08
  1 888 1.08522493E-08
  1 889 1.26878337E-08
  1 890 1.36832393E-08
  1 891 1.66173071E-08
  1 892 1.59265178E-08
  1 893 1.35561554E-08
  1 894 1.59816432E-08
  1 895 1.62681062E-08
  1 896 1.40486631E-08
  1 897 1.57977138E-08
  1 898 1.90526839E-08
  1 899 1.82427718E-08
  1 900 1.92342067E-08
  1 901 8.27893331E-09
  1 902 6.84686151E-09
  1 903 6.56396602E-09
  1 904 8.65777599E-09
  1 905 1.21213529E-08
  1 906 1.25826876E-08
  1 907 9.93109987E-09
  1 908 1.06972160E-08
  1 909 1.65456284E-08
  1 910 2.35093028E-08
  1 911 2.33938148E-08
  1 912 2.26209654E-08
  1 913 2.30403193E-08
  1 914 2.07580538E-08
  1 915 1.83008383E-08
  1 916 1.35216299E-08
  1 917 1.16463199E-08
  1 918 1.15855678E-08
  1 919 1.21221929E-08
  1 920 1.05852948E-08
  1 921 9.55208375E-09
  1 922 1.20896719E-08
  1 923 1.88501681E-08
  1 924 1.91613860E-08
  1 925 1.97812229E-08
  1 926 1.79118605E-08
  1 927 1.58026317E-08
  1 928 1.27649472E-08
  1 929 1.21007915E-08
  1 930 1.03493683E-08
  1 931 1.14323569E-08
  1 932 1.82548565E-08
  1 933 2.27036961E-08
  1 934 1.91575366E-08
  1 935 1.87336178E-08
  1 936 2.36670513E-08
  1 937 3.02201017E-08
  1 938 3.74106525E-08
  1 939 3.32694456E-08
  1 940 2.64756786E-08
  1 941 1.53479979E-08
  1 942 1.13640012E-08
  1 943 9.33417661E-09
  1 944 8.24247091E-09
  1 945 8.38961428E-09
  1 946 1.03512545E-08
  1 947 1.24937508E-08
  1 948 1.51406010E-08
  1 949 1.64088133E-08
  1 950 1.61257224E-08
  1 951 1.61983195E-08
  1 952 1.79900727E-08
  1 953 1.54900194E-08
  1 954 1.54378891E-08
  1 955 1.89397968E-08
  1 956 1.93737868E-08
  1 957 2.04407859E-08
  1 958 2.16661436E-08
  1 959 2.33909396E-08
  1 960 2.11136988E-08
  1 961 1.72536326E-08
  1 962 1.47795760E-08
  1 963 1.56273218E-08
  1 964 1.25766241E-08
  1 965 1.06410597E-08
  1 966 8.71141344E-09
  1 967 7.69992324E-09
  1 968 8.72921893E-09
  1 969 1.00795656E-08
  1 970 1.38003790E-08
  1 971 1.59235443E-08
  1 972 1.60727146E-08
  1 973 1.97707565E-08
  1 974 1.72987271E-08
  1 975 1.26895786E-08
  1 976 1.08796405E-08
  1 977 1.09746221E-08
  1 978 1.67556933E-08
  1 979 2.34915695E-08
  1 980 2.17824284E-08
  1 981 1.97950437E-08
  1 982 1.86774336E-08
  1 983 1.60325146E-08
  1 984 1.36478488E-08
  1 985 1.34422638E-08
  1 986 1.37147930E-08
  1 987 1.32272941E-08
  1 988 1.11544225E-08
  1 989 1.25244757E-08
  1 990 1.31813560E-08
  1 991 1.68875883E-08
  1 992 1.69213739E-08
  1 993 1.36785083E-08
  1 994 1.71172731E-08
  1 995 1.73781924E-08
  1 996 1.57499517E-08
  1 997 1.62013373E-08
  1 998 1.84065967E-08
  1 999 1.83948935E-08
  1 1000 2.05059781E-08
  1 1001 8.94511918E-09
  1 1002 7.74365866E-09
  1 1003 6.70451262E-09
  1 1004 7.55465891E-09
  1 1005 9.52479714E-09
  1 1006 1.15304947E-08
  1 1007 1.03707781E-08
  1 1008 1.07673440E-08
  1 1009 1.27389193E-08
  1 1010 1.99095749E-08
  1 1011 2.23220021E-08
  1 1012 2.13914050E-08
  1 1013 2.17862369E-08
  1 1014 2.24055782E-08
  1 1015 2.00684808E-08
  1 1016 1.64345000E-08
  1 1017 1.39957294E-08
  1 1018 1.18446226E-08
  1 1019 1.19076774E-08
  1 1020 1.00972973E-08
  1 1021 1.00972973E-08
  1 1022 1.00972973E-08
  1 1023 1.00972973E-08
  1 1024 8.70602944E-09
  1 1025 1.06128903E-08
  1 1026 1.54518072E-08
  1 1027 1.70712504E-08
  1 1028 1.92885673E-08
  1 1029 1.92527111E-08
  1 1030 1.84095830E-08
  1 1031 1.52766904E-08
  1 1032 1.51399145E-08
  1 1033 1.17682534E-08
  1 1034 1.11663334E-08
  1 1035 1.45556272E-08
  1 1036 2.33703418E-08
  1 1037 2.24941169E-08
  1 1038 1.98214508E-08
  1 1039 2.00129224E-08
  1 1040 2.53203620E-08
  1 1041 3.27459620E-08
  1 1042 3.16862186E-08
  1 1043 2.84250137E-08
  1 1044 1.86697392E-08
  1 1045 1.26910985E-08
  1 1046 9.64440489E-09
  1 1047 8.67204662E-09
  1 1048 8.05454173E-09
  1 1049 8.96442931E-09
  1 1050 1.12416449E-08
  1 1051 1.43566677E-08
  1 1052 1.69365589E-08
  1 1053 1.88650934E-08
  1 1054 1.65684867E-08
  1 1055 1.60548915E-08
  1 1056 1.54792630E-08
  1 1057 1.61437229E-08
  1 1058 1.72654849E-08
  1 1059 1.95345275E-08
  1 1060 2.00244854E-08
  1 1061 2.20398291E-08
  1 1062 2.53930112E-08
  1 1063 2.35391444E-08
  1 1064 2.35391444E-08
  1 1065 2.35391444E-08
  1 1066 2.35391444E-08
  1 1067 1.71117092E-08
  1 1068 1.57714891E-08
  1 1069 1.54157545E-08
  1 1070 1.34341542E-08
  1 1071 1.04256342E-08
  1 1072 9.27380914E-09
  1 1073 7.76109235E-09
  1 1074 7.04420599E-09
  1 1075 8.94719592E-09
  1 1076 1.33027640E-08
  1 1077 1.50078410E-08
  1 1078 1.45780173E-08
  1 1079 1.71594050E-08
  1 1080 1.77840388E-08
  1 1081 1.40395201E-08
  1 1082 1.05551343E-08
  1 1083 1.10757864E-08
  1 1084 1.34693569E-08
  1 1085 2.11140351E-08
  1 1086 1.94968592E-08
  1 1087 1.86663728E-08
  1 1088 1.80922042E-08
  1 1089 1.53222759E-08
  1 1090 1.27984965E-08
  1 1091 1.33043068E-08
  1 1092 1.27793675E-08
  1 1093 1.34356633E-08
  1 1094 1.24086708E-08
  1 1095 1.25066582E-08
  1 1096 1.36223581E-08
  1 1097 1.62695938E-08
  1 1098 1.76147096E-08
  1 1099 1.41536130E-08
  1 1100 1.73686949E-08
  1 1101 1.98429206E-08
  1 1102 1.70822000E-08
  1 1103 1.59453161E-08
  1 1104 1.67682901E-08
  1 1105 1.97853402E-08
  1 1106 2.32953371E-08
  1 1107 1.08138710E-08
  1 1108 8.51573162E-09
  1 1109 7.18709053E-09
  1 1110 7.31390072E-09
  1 1111 8.27545128E-09
  1 1112 9.08570893E-09
  1 1113 9.71095162E-09
  1 1114 1.05567738E-08
  1 1115 1.06605359E-08
  1 1116 1.84247231E-08
  1 1117 2.22627509E-08
  1 1118 2.04606238E-08
  1 1119 2.12668038E-08
  1 1120 2.23117662E-08
  1 1121 2.27979031E-08
  1 1122 1.98822489E-08
  1 1123 1.69719350E-08
  1 1124 1.32883928E-08
  1 1125 1.26209150E-08
  1 1126 1.26209150E-08
  1 1127 1.26209150E-08
  1 1128 1.26209150E-08
  1 1129 9.69253563E-09
  1 1130 9.69253563E-09
  1 1131 9.69253563E-09
  1 1132 9.69253563E-09
  1 1133 9.69253563E-09
  1 1134 9.69253563E-09
  1 1135 9.69253563E-09
  1 1136 9.69253563E-09
  1 1137 9.69253563E-09
  1 1138 9.69253563E-09
  1 1139 9.69253563E-09
  1 1140 9.69253563E-09
  1 1141 9.69253563E-09
  1 1142 9.69253563E-09
  1 1143 9.69253563E-09
  1 1144 9.69253563E-09
  1 1145 9.69253563E-09
  1 1146 9.69253563E-09
  1 1147 9.69253563E-09
  1 1148 9.69253563E-09
  1 1149 9.69253563E-09
  1 1150 9.69253563E-09
  1 1151 9.69253563E-09
  1 1152 9.69253563E-09
  1 1153 9.69253563E-09
  1 1154 9.69253563E-09
  1 1155 9.69253563E-09
  1 1156 9.69253563E-09
  1 1157 9.69253563E-09
  1 1158 9.69253563E-09
  1 1159 9.69253563E-09
  1 1160 9.69253563E-09
  1 1161 9.69253563E-09
  1 1162 9.69253563E-09
  1 1163 9.69253563E-09
  1 1164 9.69253563E-09
  1 1165 9.69253563E-09
  1 1166 9.69253563E-09
  1 1167 9.69253563E-09
  1 1168 9.69253563E-09
  1 1169 8.95342895E-09
  1 1170 8.95342895E-09
  1 1171 8.95342895E-09
  1 1172 8.95342895E-09
  1 1173 9.69798994E-09
  1 1174 1.28477904E-08
  1 1175 1.47260602E-08
  1 1176 1.74453439E-08
  1 1177 2.03510145E-08
  1 1178 2.08893355E-08
  1 1179 1.96684618E-08
  1 1180 1.67751347E-08
  1 1181 1.47530647E-08
  1 1182 1.09906602E-08
  1 1183 1.23089602E-08
  1 1184 1.98446672E-08
  1 1185 2.55502364E-08
  1 1186 1.97784427E-08
  1 1187 1.89581995E-08
  1 1188 2.22251848E-08
  1 1189 2.86026171E-08
  1 1190 2.87527113E-08
  1 1191 2.76049695E-08
  1 1192 2.05681547E-08
  1 1193 1.46079548E-08
  1 1194 1.16189775E-08
  1 1195 8.75298068E-09
  1 1196 8.21503859E-09
  1 1197 8.13390567E-09
  1 1198 9.80730074E-09
  1 1199 1.38740225E-08
  1 1200 1.83629587E-08
  1 1201 2.09574336E-08
  1 1202 1.83073117E-08
  1 1203 1.57096151E-08
  1 1204 1.60404405E-08
  1 1205 1.55956774E-08
  1 1206 1.58145877E-08
  1 1207 1.86531196E-08
  1 1208 2.09349114E-08
  1 1209 2.08354800E-08
  1 1210 2.59902737E-08
  1 1211 2.59902737E-08
  1 1212 2.59902737E-08
  1 1213 2.59902737E-08
  1 1214 2.56728445E-08
  1 1215 2.56728445E-08
  1 1216 2.56728445E-08
  1 1217 2.56728445E-08
  1 1218 2.56728445E-08
  1 1219 2.56728445E-08
  1 1220 2.56728445E-08
  1 1221 2.56728445E-08
  1 1222 2.56728445E-08
  1 1223 2.56728445E-08
  1 1224 2.56728445E-08
  1 1225 2.56728445E-08
  1 1226 2.56728445E-08
  1 1227 2.56728445E-08
  1 1228 2.56728445E-08
  1 1229 2.56728445E-08
  1 1230 2.56728445E-08
  1 1231 2.56728445E-08
  1 1232 2.56728445E-08
  1 1233 2.56728445E-08
  1 1234 2.56728445E-08
  1 1235 2.56728445E-08
  1 1236 2.56728445E-08
  1 1237 2.56728445E-08
  1 1238 2.56728445E-08
  1 1239 2.56728445E-08
  1 1240 2.56728445E-08
  1 1241 2.56728445E-08
  1 1242 2.56728445E-08
  1 1243 2.56728445E-08
  1 1244 2.56728445E-08
  1 1245 2.56728445E-08
  1 1246 2.56728445E-08
  1 1247 2.56728445E-08
  1 1248 2.56728445E-08
  1 1249 2.56728445E-08
  1 1250 2.56728445E-08
  1 1251 2.56728445E-08
  1 1252 2.56728445E-08
  1 1253 2.56728445E-08
  1 1254 1.98966419E-08
  1 1255 1.98966419E-08
  1 1256 1.98966419E-08
  1 1257 1.98966419E-08
  1 1258 1.72724693E-08
  1 1259 1.72421497E-08
  1 1260 1.52647524E-08
  1 1261 1.05446301E-08
  1 1262 9.64477987E-09
  1 1263 8.47722792E-09
  1 1264 6.71860440E-09
  1 1265 8.15795073E-09
  1 1266 1.15055241E-08
  1 1267 1.59264066E-08
  1 1268 1.40438436E-08
  1 1269 1.64873978E-08
  1 1270 1.77722391E-08
  1 1271 1.47526976E-08
  1 1272 1.15670049E-08
  1 1273 1.24325039E-08
  1 1274 1.24085530E-08
  1 1275 1.67969603E-08
  1 1276 1.89163942E-08
  1 1277 1.74774902E-08
  1 1278 1.70857294E-08
  1 1279 1.39971522E-08
  1 1280 1.19195075E-08
  1 1281 1.32290069E-08
  1 1282 1.28627625E-08
  1 1283 1.28664533E-08
  1 1284 1.26078063E-08
  1 1285 1.27640009E-08
  1 1286 1.33698859E-08
  1 1287 1.58184583E-08
  1 1288 1.79198080E-08
  1 1289 1.51419967E-08