# File generated by Flopy version 3.7.0 on 07/09/2024 at 15:37:30.
BEGIN options
  PRINT_OPTION  summary
  COMPLEXITY  complex
END options

BEGIN linear
  LINEAR_ACCELERATION  bicgstab
END linear

