# File generated by Flopy version 3.6.0 on 07/18/2024 at 12:24:21.
BEGIN griddata
  strt
    INTERNAL  FACTOR  1.0
        15.00000000      15.00000000      15.00000000      15.00000000      15.00000000      15.00000000      15.00000000      15.00000000      15.00000000      15.00000000      15.00000000      15.00000000      15.00000000      15.00000000      15.00000000      15.00000000      15.00000000      15.00000000      15.00000000      15.00000000
        15.00000000      15.00000000      15.00000000      15.00000000      15.00000000      15.00000000      15.00000000      15.00000000      15.00000000      15.00000000      15.00000000      15.00000000      15.00000000      15.00000000      15.00000000      15.00000000      15.00000000      15.00000000      15.00000000      15.00000000
        15.00000000      15.00000000      15.00000000      15.00000000      15.00000000      15.00000000      15.00000000      15.00000000      15.00000000      15.00000000      15.00000000      15.00000000      15.00000000      15.00000000      15.00000000      15.00000000      15.00000000      15.00000000      15.00000000      15.00000000
        15.00000000      15.00000000      15.00000000      15.00000000      15.00000000      15.00000000      15.00000000      15.00000000      15.00000000      15.00000000      15.00000000      15.00000000      15.00000000      15.00000000      15.00000000      15.00000000      15.00000000      15.00000000      15.00000000      15.00000000
        15.00000000      15.00000000      15.00000000      15.00000000      15.00000000      15.00000000      15.00000000      15.00000000      15.00000000      15.00000000      15.00000000      15.00000000      15.00000000      15.00000000      15.00000000      15.00000000      15.00000000      15.00000000      15.00000000      15.00000000
        15.22579985      15.22918824      15.23338238      15.23432358      15.22930998      15.22156363      15.21430601      15.20953597      15.20726925      15.20670721      15.20440942      15.19647163      15.18523616      15.17246807      15.16098895      15.14937787      15.13704397      15.12402499      15.11005441      15.09682162
        15.08401394      15.07314815      15.06363400      15.05500070      15.04765712      15.04222137      15.03940159      15.03823961      15.03773014      15.03679967      15.03566007      15.03451689      15.03421346      15.03490367      15.03680150      15.03944305      15.04208413      15.04592658      15.05181966      15.06042883
        15.07111540      15.08255035      15.09250287      15.10064721      15.10790266      15.11405123      15.12091587      15.12759641      15.13331688      15.13713616      15.13970351      15.14469472      15.15611201      15.17107998      15.18788987      15.20334935      15.21467863      15.22270851      15.22823757      15.22780559
        15.22393424      15.21853119      15.21141997      15.20246957      15.19628133      15.18995475      15.18303018      15.17808178      15.18088814      15.19513444      15.21934161      15.24993388      15.28742652      15.32707517      15.36866938      15.41128391      15.45287461      15.49461378      15.52232873      15.53649235
        15.54033688      15.54025071      15.53774860      15.53733401      15.54341814      15.56125957      15.58710703      15.61931038      15.65085326      15.66152127      15.64916132      15.62447344      15.59469868      15.55908576      15.51876616      15.48241476      15.44418611      15.41131658      15.39467284      15.39236290
        15.38130676      15.38283316      15.38378166      15.38065971      15.37142091      15.36016156      15.34929963      15.33972847      15.33114000      15.32211082      15.31028819      15.29565140      15.27997146      15.26496914      15.25051413      15.23516374      15.21879175      15.20145609      15.18287975      15.16408347
        15.14621190      15.12898146      15.11385891      15.10098709      15.09045636      15.08298726      15.07819010      15.07511294      15.07278506      15.07037773      15.06869453      15.06811939      15.06867307      15.07061849      15.07383729      15.07815564      15.08354027      15.09212160      15.10469921      15.12097164
        15.13935078      15.15814868      15.17486946      15.18936332      15.20209752      15.21320248      15.22443921      15.23528356      15.24614268      15.25676730      15.26830080      15.28388872      15.30333186      15.32334858      15.34276942      15.35754391      15.36784412      15.37396652      15.37555406      15.36982402
        15.36148372      15.35320455      15.34561306      15.33836312      15.33212803      15.32600278      15.32259158      15.32665982      15.34396820      15.37701519      15.42025930      15.47441775      15.53968845      15.61204608      15.68712779      15.76021427      15.83063904      15.88957411      15.92940497      15.95608563
        15.97588420      15.99568834      16.01595130      16.04050333      16.07388682      16.11332172      16.15441850      16.19959217      16.22674402      16.22048606      16.19117382      16.14154348      16.08497311      16.02961315      15.97077281      15.91748763      15.87543872      15.85021138      15.84290093      15.84714175
        15.48239558      15.47921276      15.47308584      15.46402783      15.45262439      15.43968548      15.42610495      15.41293983      15.39946541      15.38490626      15.36880938      15.35242029      15.33641891      15.32113737      15.30581189      15.28957215      15.27216113      15.25348777      15.23397567      15.21383036
        15.19426081      15.17498700      15.15728736      15.14235108      15.13008436      15.12107217      15.11432761      15.10876252      15.10399100      15.10075867      15.09948164      15.10042476      15.10316694      15.10657890      15.11089980      15.11722282      15.12690257      15.14103827      15.15948450      15.18046722
        15.20290622      15.22553016      15.24644167      15.26520242      15.28261297      15.30014277      15.31815780      15.33582249      15.35203111      15.36863203      15.38626271      15.40527927      15.42439529      15.44241951      15.45802940      15.47025614      15.47841624      15.48128339      15.47858115      15.47315113
        15.46713894      15.46050582      15.45395464      15.44777160      15.44239481      15.44107790      15.44860128      15.46859236      15.50435810      15.55472531      15.61878248      15.69720815      15.78224887      15.86921810      15.95533195      16.03847769      16.11768534      16.18341696      16.23821216      16.28979127
        16.34337976      16.40328173      16.46174459      16.51389945      16.56307758      16.60687844      16.64013428      16.66410378      16.67135488      16.65153689      16.61009290      16.55200298      16.48597134      16.42308563      16.36427684      16.31832176      16.28751080      16.27540731      16.27348101      16.27616740
        15.53712866      15.53200939      15.52289850      15.51144965      15.49856707      15.48437831      15.46908651      15.45338533      15.43754270      15.42165615      15.40569817      15.38990979      15.37425222      15.35845805      15.34280159      15.32640802      15.30931876      15.29084398      15.27162556      15.25235429
        15.23330320      15.21463787      15.19663730      15.18059579      15.16729784      15.15636302      15.14750697      15.14009732      15.13438566      15.13148777      15.13156855      15.13427215      15.13850124      15.14365451      15.15029312      15.15984135      15.17450381      15.19373900      15.21509169      15.23738376
        15.26076977      15.28405591      15.30649886      15.32923888      15.35337265      15.37769636      15.40112357      15.42237718      15.44079166      15.45795418      15.47521373      15.49284313      15.51057530      15.52734870      15.54024449      15.54977649      15.55557943      15.55776851      15.55788056      15.55730065
        15.55550268      15.55257459      15.55047368      15.55135390      15.55561209      15.56621929      15.58867922      15.62489387      15.67776880      15.74487666      15.82471299      15.91228907      15.99873651      16.08311359      16.16466283      16.24749755      16.32937078      16.40756327      16.48526519      16.56560176
        16.64795726      16.72630396      16.79747351      16.86118797      16.91279155      16.95143034      16.97174599      16.97593625      16.96691828      16.94394850      16.90758428      16.86178450      16.80736037      16.75136365      16.70476330      16.66939383      16.64732890      16.63292010      16.62515806      16.62234926
        15.56284475      15.55763934      15.54831372      15.53624490      15.52290913      15.50870412      15.49348668      15.47766808      15.46171165      15.44610183      15.43059241      15.41506780      15.39972249      15.38410757      15.36846060      15.35249405      15.33605968      15.31909988      15.30123363      15.28357481
        15.26629918      15.24899695      15.23203969      15.21600483      15.20183035      15.18944708      15.17873355      15.17048642      15.16551483      15.16391396      15.16517611      15.16894274      15.17409576      15.18112085      15.19107736      15.20524873      15.22445541      15.24610990      15.26750369      15.28974787
        15.31329278      15.33779414      15.36314274      15.39015915      15.41840440      15.44494394      15.46823995      15.48805670      15.50491877      15.52068598      15.53637863      15.55274284      15.56873085      15.58282487      15.59345086      15.60150210      15.60845848      15.61490072      15.62081471      15.62525500
        15.62838464      15.63259661      15.64085357      15.65362104      15.67180935      15.69975483      15.73954394      15.79206564      15.85675840      15.93279487      16.01411305      16.09707844      16.17811975      16.25669613      16.33586482      16.42190979      16.51428750      16.60809896      16.70148644      16.79230508
        16.87685460      16.95339285      17.02493960      17.08770163      17.13410793      17.16175470      17.17271071      17.17055549      17.15874425      17.14324309      17.12131771      17.09145750      17.05522077      17.01406645      16.97542952      16.94508228      16.92449833      16.90789238      16.89718182      16.89244817
        15.57259768      15.56710449      15.55782659      15.54647921      15.53412258      15.52097498      15.50715647      15.49289390      15.47794385      15.46283024      15.44800062      15.43309319      15.41817290      15.40313140      15.38806202      15.37298666      15.35779280      15.34248101      15.32651532      15.31039222
        15.29474489      15.27887358      15.26321972      15.24817748      15.23396431      15.22105022      15.20978159      15.20171740      15.19778407      15.19691150      15.19864329      15.20223792      15.20796898      15.21735185      15.23187261      15.25119918      15.27331771      15.29534495      15.31689021      15.34019302
        15.36568214      15.39244539      15.41957491      15.44769792      15.47475693      15.49841962      15.51840395      15.53544335      15.54994378      15.56380490      15.57802085      15.59276676      15.60637884      15.61810575      15.62842497      15.63832777      15.64842075      15.65907780      15.66877565      15.67764901
        15.68762414      15.70160672      15.72143429      15.74647661      15.77936379      15.82373120      15.87872155      15.94351595      16.01660827      16.09677248      16.17855638      16.26036086      16.33959876      16.41974946      16.50622028      16.60199266      16.70318607      16.80327206      16.89719179      16.98205492
        17.06085645      17.13547086      17.20328601      17.25640269      17.29061105      17.31090332      17.31944591      17.31865277      17.31183519      17.29939233      17.28070228      17.25636991      17.22808764      17.19766975      17.16840405      17.14401230      17.12523394      17.11069081      17.09869614      17.09312567
        15.57306340      15.56741866      15.55885714      15.54893250      15.53839409      15.52726953      15.51546957      15.50298815      15.48958293      15.47550258      15.46133092      15.44714400      15.43281009      15.41850299      15.40417183      15.38977140      15.37566930      15.36160157      15.34723025      15.33242802
        15.31810070      15.30419772      15.29045849      15.27697217      15.26398043      15.25188682      15.24169443      15.23459824      15.23116879      15.23072648      15.23293075      15.23705215      15.24443776      15.25704549      15.27541256      15.29767265      15.32119611      15.34315021      15.36540076      15.39017891
        15.41682962      15.44361766      15.46963820      15.49555574      15.51850056      15.53757594      15.55374210      15.56766904      15.58005610      15.59257346      15.60591851      15.61926229      15.63200145      15.64403372      15.65564507      15.66780243      15.68059859      15.69371607      15.70692141      15.72198149
        15.74042878      15.76358795      15.79204072      15.82723064      15.87078383      15.92513096      15.99001952      16.06277995      16.14263512      16.22754413      16.31524031      16.40354455      16.49109185      16.58213062      16.67818198      16.78058642      16.88278235      16.97770115      17.06268431      17.14163366
        17.21784326      17.28842824      17.34830692      17.39049861      17.41630281      17.43347038      17.44301540      17.44349329      17.43565592      17.42022402      17.40037068      17.37734551      17.35328447      17.32932306      17.30699520      17.28672227      17.26877266      17.25461351      17.24248283      17.23543918
        15.56965418      15.56461087      15.55729470      15.54895686      15.54011051      15.53095396      15.52107979      15.51013106      15.49811402      15.48534199      15.47208984      15.45867911      15.44498022      15.43110852      15.41751434      15.40385942      15.39054080      15.37755621      15.36448873      15.35102416
        15.33778653      15.32540827      15.31347671      15.30195893      15.29095513      15.28108015      15.27352504      15.26829126      15.26570643      15.26621381      15.26954925      15.27629042      15.28780584      15.30441436      15.32534967      15.34841507      15.37037471      15.39071736      15.41244613      15.43627636
        15.46092394      15.48493536      15.50812856      15.52953743      15.54762694      15.56273215      15.57600244      15.58804569      15.59971257      15.61194468      15.62503134      15.63858664      15.65218095      15.66532513      15.67878592      15.69335363      15.70901631      15.72541068      15.74341185      15.76391753
        15.78815935      15.81705353      15.85050117      15.89122620      15.94124321      16.00287443      16.07394300      16.15125682      16.23616505      16.32967081      16.42940112      16.52999001      16.62906103      16.72679659      16.82771111      16.93178989      17.03058026      17.11818274      17.19974966      17.27834566
        17.35189404      17.41711924      17.46929753      17.50522510      17.52822051      17.54272792      17.54887820      17.54722616      17.53603966      17.51880912      17.49935333      17.47813132      17.45694145      17.43630612      17.41641044      17.39691726      17.37773562      17.36168749      17.34915130      17.34169557
        15.56602239      15.56199068      15.55603050      15.54920429      15.54193213      15.53426853      15.52572615      15.51597716      15.50503720      15.49327498      15.48105970      15.46843794      15.45561097      15.44262034      15.42970300      15.41689541      15.40431078      15.39221475      15.38022896      15.36807662
        15.35609068      15.34484775      15.33460573      15.32532636      15.31701281      15.31023028      15.30573391      15.30300675      15.30226812      15.30455276      15.31087440      15.32211797      15.33815007      15.35796213      15.37983811      15.40044299      15.41828588      15.43565716      15.45439724      15.47431529
        15.49484872      15.51524163      15.53469690      15.55188094      15.56667203      15.57968235      15.59177507      15.60347611      15.61523142      15.62805034      15.64191620      15.65627820      15.67078507      15.68550825      15.70134331      15.71856881      15.73674288      15.75617270      15.77723328      15.80085690
        15.82869412      15.86054302      15.89904555      15.94716833      16.00595109      16.07438458      16.15087277      16.23476011      16.32851620      16.43293175      16.54014674      16.64367433      16.74416347      16.84374979      16.94675649      17.04944780      17.14492285      17.23175404      17.31452481      17.39412110
        17.46966572      17.53192237      17.57776687      17.60897887      17.62966430      17.64160998      17.64383937      17.63810479      17.62415869      17.60541409      17.58543220      17.56501025      17.54475218      17.52340779      17.50276581      17.48375284      17.46608758      17.45007405      17.43874831      17.43266622
        15.56369615      15.56056287      15.55583431      15.55033247      15.54438567      15.53780934      15.53016770      15.52149378      15.51170375      15.50082553      15.48926731      15.47748842      15.46563501      15.45360949      15.44152558      15.42958441      15.41787169      15.40647114      15.39532339      15.38437282
        15.37375821      15.36403225      15.35577340      15.34902624      15.34379198      15.34040058      15.33870663      15.33896421      15.34127161      15.34694400      15.35729342      15.37189714      15.38961252      15.40927405      15.42817144      15.44381863      15.45739455      15.47140260      15.48647458      15.50251425
        15.51965144      15.53712125      15.55366116      15.56869548      15.58228267      15.59468118      15.60666742      15.61877890      15.63128634      15.64482227      15.65933697      15.67454291      15.69027843      15.70682001      15.72463912      15.74361407      15.76353994      15.78493496      15.80835234      15.83519091
        15.86676013      15.90465789      15.95279847      16.01151446      16.07891619      16.15528875      16.23966017      16.33233711      16.43387347      16.54167535      16.64627070      16.74583999      16.84360576      16.94205157      17.04393649      17.14497791      17.23984755      17.32757832      17.41090584      17.49310321
        17.56812026      17.62627351      17.66743970      17.69530928      17.71316875      17.72271286      17.72243390      17.71445437      17.70005720      17.68140919      17.66139018      17.64032278      17.61962267      17.59871484      17.57823020      17.55919080      17.54219474      17.52772395      17.51760822      17.51222121
        15.56309587      15.56054252      15.55671847      15.55223685      15.54712378      15.54133974      15.53457930      15.52683025      15.51808192      15.50821987      15.49748820      15.48640609      15.47534126      15.46430795      15.45307723      15.44179801      15.43086774      15.42028910      15.41008997      15.40034765
        15.39144496      15.38373390      15.37776077      15.37360049      15.37109641      15.37066497      15.37187405      15.37539905      15.38138215      15.39039174      15.40276092      15.41759552      15.43403913      15.45031910      15.46401730      15.47528037      15.48605923      15.49783881      15.51066625      15.52459876
        15.53975153      15.55549770      15.57068708      15.58476091      15.59792268      15.61020884      15.62228176      15.63452013      15.64726696      15.66129917      15.67661439      15.69286919      15.71002383      15.72830325      15.74796195      15.76913021      15.79131091      15.81568187      15.84311549      15.87529408
        15.91433551      15.96218553      16.02083411      16.08839069      16.16313797      16.24598279      16.33613648      16.43350391      16.53780688      16.64368582      16.74370892      16.83964353      16.93470023      17.03256473      17.13352615      17.23301253      17.32523578      17.40978260      17.49271828      17.57411416
        17.64431725      17.69733360      17.73550915      17.76164161      17.77759079      17.78387540      17.78090481      17.77202118      17.75832747      17.74120996      17.72240154      17.70218643      17.68166719      17.66183470      17.64256509      17.62367584      17.60703915      17.59378859      17.58418924      17.57929373
        15.56386370      15.56175560      15.55853841      15.55468251      15.55019244      15.54493835      15.53882354      15.53192346      15.52415759      15.51538684      15.50577897      15.49574853      15.48554970      15.47528606      15.46501337      15.45471963      15.44472778      15.43520162      15.42637435      15.41839626
        15.41132269      15.40552734      15.40148166      15.39962940      15.39983852      15.40171133      15.40537246      15.41108453      15.41923531      15.42964642      15.44188299      15.45552534      15.46948007      15.48171670      15.49168332      15.50078556      15.51048140      15.52095055      15.53232153      15.54484053
        15.55887999      15.57363651      15.58794769      15.60133516      15.61374692      15.62522919      15.63675101      15.64883544      15.66189897      15.67672241      15.69307108      15.71068994      15.72974060      15.75030584      15.77279884      15.79664687      15.82243328      15.85228952      15.88688761      15.92736511
        15.97598192      16.03342868      16.09958811      16.17158016      16.24975048      16.33504439      16.42825246      16.52843008      16.63124207      16.73261978      16.82943766      16.92381579      17.01857078      17.11542090      17.21208437      17.30445626      17.39066408      17.47299458      17.55468870      17.63157109
        17.69548591      17.74394450      17.77972560      17.80341432      17.81561868      17.81766293      17.81236087      17.80291779      17.78943160      17.77348973      17.75670134      17.73955047      17.72220623      17.70458544      17.68770357      17.67179242      17.65772528      17.64655672      17.63799491      17.63371673
        15.56574049      15.56390468      15.56108093      15.55761245      15.55359446      15.54894799      15.54340908      15.53710237      15.53014731      15.52242290      15.51397681      15.50518526      15.49624532      15.48710479      15.47813308      15.46956117      15.46156198      15.45402249      15.44719198      15.44108508
        15.43559319      15.43120208      15.42861259      15.42818633      15.42989506      15.43296000      15.43761470      15.44420974      15.45352566      15.46448194      15.47641985      15.48838904      15.49926750      15.50831181      15.51622191      15.52427903      15.53331438      15.54308122      15.55364355      15.56557026
        15.57905186      15.59274159      15.60547628      15.61709605      15.62791289      15.63852189      15.64983397      15.66213835      15.67608823      15.69226605      15.70998795      15.72932923      15.75075971      15.77449271      15.80015482      15.82805098      15.86064750      15.89875444      15.94183217      15.99093215
        16.04812627      16.11191194      16.18099359      16.25468903      16.33431292      16.42045194      16.51382216      16.61108824      16.70896071      16.80753878      16.90254101      16.99549419      17.08806519      17.17951494      17.26804108      17.35263032      17.43340839      17.51191917      17.58927557      17.66015274
        17.71820031      17.76217719      17.79404441      17.81412455      17.82263850      17.82227774      17.81581293      17.80622892      17.79364925      17.77963493      17.76540155      17.75134400      17.73799071      17.72474103      17.71204615      17.70018543      17.68949216      17.68061163      17.67350282      17.66948441
        15.56881780      15.56712160      15.56456324      15.56143134      15.55778197      15.55362517      15.54867517      15.54288716      15.53665631      15.52989952      15.52261220      15.51512471      15.50775086      15.50039806      15.49341918      15.48703568      15.48145539      15.47643925      15.47176236      15.46732847
        15.46339773      15.46028808      15.45844717      15.45798579      15.45923850      15.46234559      15.46748812      15.47540783      15.48564465      15.49669876      15.50761723      15.51731828      15.52537418      15.53244388      15.53934199      15.54687412      15.55532641      15.56466437      15.57508902      15.58657585
        15.59871015      15.61019807      15.62067406      15.63065673      15.64055777      15.65086630      15.66234738      15.67571994      15.69142821      15.70931493      15.72866911      15.75039574      15.77547825      15.80367076      15.83514002      15.87077941      15.91150882      15.95639092      16.00656436      16.06310221
        16.12549543      16.19134754      16.26137401      16.33574569      16.41406518      16.49816926      16.58802395      16.68096073      16.77621591      16.87182824      16.96379284      17.05290947      17.13945194      17.22341291      17.30394380      17.38148970      17.45645728      17.52977224      17.60109796      17.66453383
        17.71615457      17.75576356      17.78403407      17.80125272      17.80835674      17.80786161      17.80205336      17.79330506      17.78224161      17.77035653      17.75858370      17.74722594      17.73701171      17.72765786      17.71902636      17.71084197      17.70327732      17.69671287      17.69163407      17.68865371
        15.57324147      15.57169807      15.56932080      15.56643029      15.56308046      15.55934454      15.55515409      15.55022938      15.54473804      15.53877771      15.53258604      15.52631963      15.52038170      15.51504462      15.51008492      15.50556210      15.50165262      15.49831599      15.49526355      15.49251230
        15.49041491      15.48873301      15.48718281      15.48635543      15.48699815      15.49016126      15.49631757      15.50532399      15.51555596      15.52577745      15.53512315      15.54303693      15.54958236      15.55567701      15.56198762      15.56868960      15.57615692      15.58485068      15.59423266      15.60417383
        15.61421336      15.62389027      15.63321474      15.64253718      15.65225914      15.66301620      15.67577798      15.69114204      15.70903753      15.72881047      15.75088188      15.77697045      15.80785682      15.84257612      15.88091283      15.92318623      15.96928016      16.02107872      16.07887793      16.14007649
        16.20416809      16.27077518      16.34063010      16.41281455      16.48923664      16.57078489      16.65632449      16.74539695      16.83721768      16.92908119      17.01619306      17.09725123      17.17447669      17.25001922      17.32412420      17.39645836      17.46692223      17.53442483      17.59796148      17.65465248
        17.70069891      17.73523968      17.75952621      17.77547409      17.78286350      17.78367902      17.77955759      17.77229601      17.76294104      17.75305101      17.74384415      17.73544094      17.72839196      17.72233575      17.71671962      17.71129537      17.70629307      17.70190947      17.69850863      17.69666806
        15.57856932      15.57722591      15.57507628      15.57250058      15.56965354      15.56655885      15.56304797      15.55912480      15.55471431      15.54968770      15.54418257      15.53878608      15.53393297      15.52977679      15.52605938      15.52280177      15.52004784      15.51786206      15.51610426      15.51473060
        15.51390459      15.51324817      15.51262037      15.51263593      15.51414846      15.51830443      15.52553129      15.53453409      15.54363320      15.55198250      15.55943795      15.56598277      15.57192265      15.57753209      15.58304443      15.58876921      15.59540757      15.60257093      15.60991749      15.61809751
        15.62679358      15.63556508      15.64454170      15.65393837      15.66421034      15.67609626      15.69081526      15.70876676      15.72919924      15.75198472      15.77891905      15.81119897      15.84876308      15.88992684      15.93461264      15.98356798      16.03777083      16.09751404      16.15838171      16.21905195
        16.28259085      16.34780353      16.41540429      16.48617847      16.56122508      16.63936929      16.72202275      16.80769531      16.89471702      16.98010389      17.05776848      17.12797845      17.19580536      17.26369311      17.33213934      17.40065401      17.46672246      17.52804898      17.58411523      17.63389763
        17.67444834      17.70505715      17.72710511      17.74203394      17.74998076      17.75212900      17.74975505      17.74475700      17.73847037      17.73165920      17.72561797      17.72038828      17.71619156      17.71255632      17.70915559      17.70569379      17.70241879      17.69955820      17.69731661      17.69607262
        15.58405786      15.58293392      15.58116209      15.57903391      15.57678055      15.57442740      15.57176183      15.56872075      15.56524427      15.56115351      15.55649353      15.55179590      15.54768378      15.54414089      15.54126235      15.53894511      15.53729433      15.53602534      15.53495314      15.53434442
        15.53406816      15.53399115      15.53451694      15.53609022      15.53943580      15.54511851      15.55295605      15.56101678      15.56814636      15.57453202      15.58041914      15.58602889      15.59144039      15.59644974      15.60126633      15.60626407      15.61170366      15.61727688      15.62355116      15.63080865