# File generated by Flopy version 3.6.0 on 09/27/2024 at 11:33:43.
BEGIN options
  PRINT_OPTION  summary
  COMPLEXITY  complex
END options

BEGIN linear
  LINEAR_ACCELERATION  bicgstab
END linear

