# File generated by Flopy version 3.7.0 on 06/13/2024 at 10:34:42.
BEGIN options
END options

BEGIN griddata
  icelltype
    CONSTANT  0
  k
    INTERNAL  FACTOR  1.0
    5.34465840E-04  4.47122016E-04  3.49052713E-04  3.52445128E-04  3.19091172E-04  2.48888156E-04  2.33218344E-04  2.33841351E-04  1.28686135E-04  7.59992293E-05  4.63491198E-05  2.95597399E-05  2.01845770E-05  2.39452911E-05  4.21594399E-05  6.33834858E-05  8.57902008E-05  1.27359929E-04  1.66038346E-04  2.06025752E-04
    2.17497404E-04  2.35638818E-04  3.44083974E-04  5.40825700E-04  6.74989688E-04  7.81398384E-04  6.21463517E-04  4.85299061E-04  3.41614221E-04  1.91671092E-04  1.18520328E-04  7.82247587E-05  6.68532288E-05  7.14863451E-05  6.90044067E-05  6.19166197E-05  8.05435840E-05  9.38501143E-05  1.82879590E-04  2.86100533E-04
    2.55402361E-04  2.27558226E-04  1.65303330E-04  1.02460890E-04  6.75491384E-05  7.21209701E-05  9.00082639E-05  8.87169888E-05  1.04358310E-04  1.32894132E-04  1.52943744E-04  1.56942480E-04  1.82765844E-04  2.64659856E-04  3.69377611E-04  3.38367787E-04  3.58911698E-04  3.99463978E-04  2.70244435E-04  1.13922826E-04
    6.80710737E-05  6.45717915E-05  5.97770395E-05  7.14856902E-05  7.66470556E-05  7.60125661E-05  1.04764991E-04  9.73916008E-05  5.79615798E-05  6.19476178E-05  1.21608110E-04  3.01114736E-04  4.90540141E-04  8.15270493E-04       0.00151293       0.00234637       0.00287019       0.00371221       0.00291746       0.00230608
         0.00173198       0.00119694  6.55517954E-04  3.82776258E-04  2.23177497E-04  2.20839652E-04  2.39137169E-04  2.56423708E-04  2.34796428E-04  1.94633457E-04  2.38034343E-04  1.83443626E-04  1.06118590E-04  7.17061680E-05  6.76925410E-05  6.68984125E-05  7.75162771E-05  9.71674544E-05  1.47989169E-04  2.09502567E-04
    2.00082054E-04  2.14544064E-04  2.89200266E-04  2.28044226E-04  1.81742465E-04  1.23776732E-04  1.04627144E-04  1.01443760E-04  9.76101805E-05  5.75048775E-05  3.51885638E-05  2.43370912E-05  2.83172745E-05  4.00093299E-05  5.67320923E-05  1.08328228E-04  1.75118136E-04  2.38141408E-04  2.06606900E-04  1.48903247E-04
    1.73078054E-04  2.30766664E-04  3.57111284E-04  5.15699801E-04  6.95440796E-04  6.00122987E-04  4.27683520E-04  3.65471386E-04  2.05859498E-04  1.06738018E-04  7.34795960E-05  6.51527463E-05  6.98005273E-05  7.58147195E-05  8.06513498E-05  8.00949456E-05  1.14280469E-04  1.79960584E-04  1.78971314E-04  1.60736435E-04
    1.69601712E-04  1.39673411E-04  9.29219975E-05  6.82029418E-05  7.22955052E-05  1.00468124E-04  8.40150150E-05  6.68493774E-05  6.14353365E-05  8.88173793E-05  9.85120014E-05  1.38929745E-04  1.43133681E-04  1.90060710E-04  2.42882421E-04  2.48357736E-04  2.16813644E-04  1.87469835E-04  1.27904666E-04  8.30271838E-05
    6.63291756E-05  4.99679942E-05  4.04173359E-05  2.73597006E-05  2.42288439E-05  3.27503400E-05  3.24217658E-05  3.07487397E-05  4.60440374E-05  1.14848131E-04  2.51015020E-04  5.47320163E-04  7.45752758E-04       0.00104563       0.00126808       0.00187336       0.00230616       0.00236940       0.00243862       0.00179343
         0.00141179  8.54726324E-04  5.04243451E-04  2.99338006E-04  1.98946107E-04  1.47484132E-04  1.62142085E-04  1.47820138E-04  1.38542833E-04  1.22146504E-04  8.07002602E-05  5.51925628E-05  5.13576283E-05  4.84352094E-05  5.30795984E-05  5.83900143E-05  9.65641712E-05  2.38725726E-04  4.76918264E-04  6.09394031E-04
    2.80367661E-04  2.75226494E-04  2.10808746E-04  1.72072059E-04  1.47298206E-04  1.38175324E-04  1.28157120E-04  1.07695704E-04  7.93683148E-05  5.76331362E-05  4.68548951E-05  5.48020662E-05  5.40473780E-05  7.61971572E-05  9.38821069E-05  1.01416392E-04  1.16820402E-04  1.11254168E-04  1.01231576E-04  1.44071034E-04
    2.11642269E-04  2.62136593E-04  3.61295946E-04  4.24165910E-04  4.74181710E-04  5.23581061E-04  2.79277156E-04  1.37686681E-04  7.73367249E-05  6.23303165E-05  6.73448947E-05  8.76280021E-05  9.18733628E-05  1.17735455E-04  1.32880261E-04  1.36777936E-04  1.33558216E-04  1.24770859E-04  1.08866693E-04  9.25504827E-05
    8.42282545E-05  6.11701155E-05  3.19945404E-05  3.85604399E-05  4.70510986E-05  5.08821446E-05  5.17266440E-05  6.37561254E-05  9.76402964E-05  1.38458934E-04  1.74370765E-04  2.11528543E-04  2.45646124E-04  2.62858926E-04  2.06472351E-04  2.37294831E-04  2.63411109E-04  2.46299499E-04  1.79175558E-04  1.18679726E-04
    1.16685732E-04  8.12465279E-05  3.34779463E-05  2.07276866E-05  2.26535256E-05  2.41863361E-05  3.54232985E-05  4.64474147E-05  7.79257773E-05  1.82792318E-04  3.65875904E-04  4.77229916E-04  5.43733832E-04  4.73619688E-04  5.06583218E-04  8.01500159E-04       0.00101084       0.00165168       0.00180124       0.00148095
    9.50925868E-04  7.80524614E-04  6.46682565E-04  4.16027909E-04  2.51010814E-04  1.63489304E-04  1.05136638E-04  6.84282970E-05  4.85857047E-05  3.61800989E-05  4.33853927E-05  4.87506491E-05  4.44147366E-05  3.92419109E-05  3.49395932E-05  5.35913694E-05  1.37618548E-04  3.38060904E-04  4.53651260E-04  5.35857060E-04
    2.24146130E-04  2.54843946E-04  2.42267013E-04  2.10192384E-04  2.10714404E-04  2.12306447E-04  1.42008172E-04  8.60014440E-05  5.93547737E-05  5.35903619E-05  5.62115323E-05  5.19741954E-05  6.37695668E-05  4.83832067E-05  3.82366380E-05  4.41759089E-05  6.61812629E-05  8.97738409E-05  1.24677696E-04  1.53465269E-04
    1.90787031E-04  2.94635853E-04  3.85136769E-04  4.17163412E-04  2.86985339E-04  1.52363881E-04  7.04129809E-05  5.26695127E-05  4.96477614E-05  6.65432654E-05  8.81892429E-05  9.87587941E-05  1.03437575E-04  1.08322535E-04  1.37371911E-04  1.40951355E-04  1.14927556E-04  1.00461333E-04  7.21152176E-05  5.29160014E-05
    4.14200535E-05  3.54825604E-05  3.37062266E-05  3.80720909E-05  5.32083441E-05  6.66885137E-05  9.59597031E-05  1.43435906E-04  2.91037614E-04  3.78611453E-04  4.46845501E-04  4.45157820E-04  3.70672012E-04  2.68142455E-04  3.10343517E-04  4.29657243E-04  3.73172322E-04  2.90439375E-04  2.25947971E-04  1.72039566E-04
    1.50963528E-04  7.22012676E-05  4.42603826E-05  4.18511953E-05  4.26797163E-05  6.00140062E-05  8.07783469E-05  9.43198877E-05  1.70073791E-04  2.92725123E-04  4.04776142E-04  3.75547343E-04  2.68008623E-04  2.36212354E-04  3.58290332E-04  5.63117548E-04  8.42580244E-04       0.00106162       0.00120118       0.00115147
         0.00144695       0.00153059       0.00144322  8.37729644E-04  3.79644930E-04  1.34661277E-04  6.83435049E-05  3.97113355E-05  2.48907221E-05  2.38161341E-05  2.50187426E-05  2.17757969E-05  1.68993487E-05  1.82196618E-05  2.46936748E-05  4.41199230E-05  7.85991869E-05  1.45889810E-04  3.98836381E-04  8.70161187E-04
    1.18310126E-04  1.31393910E-04  1.37842190E-04  1.50354221E-04  1.63322219E-04  1.11395210E-04  9.57294960E-05  8.46022842E-05  6.87353888E-05  6.59044527E-05  6.94324386E-05  6.97287089E-05  6.32482647E-05  6.03219308E-05  6.14164450E-05  6.35381981E-05  9.30590915E-05  1.37793404E-04  1.46077764E-04  1.61449314E-04
    2.43186884E-04  3.21727091E-04  2.89768336E-04  1.61476866E-04  1.11342985E-04  7.73996140E-05  4.93176965E-05  3.20526085E-05  3.49139584E-05  5.03105011E-05  5.27985436E-05  5.67700082E-05  8.69263395E-05  1.27997800E-04  1.29585459E-04  1.62200520E-04  1.38866209E-04  9.92889056E-05  1.11831349E-04  1.05212672E-04
    7.69263523E-05  7.22208868E-05  6.45874579E-05  6.93303881E-05  8.95925394E-05  9.89671319E-05  1.33320755E-04  2.07475268E-04  2.70469332E-04  4.14216206E-04  4.98598539E-04  4.35516182E-04  3.13954136E-04  3.10444517E-04  2.47814967E-04  1.91981021E-04  1.97179313E-04  2.63729181E-04  2.41442419E-04  1.99567592E-04
    1.85763481E-04  1.98239641E-04  1.71760546E-04  1.61360494E-04  1.31109258E-04  1.03416552E-04  1.05356432E-04  1.68412630E-04  1.98811158E-04  2.23144924E-04  1.85364119E-04  1.56943729E-04  1.36935149E-04  1.39336466E-04  1.66586175E-04  2.74892872E-04  5.38306391E-04  9.70526622E-04       0.00151085       0.00185632
         0.00246929       0.00288132       0.00198134  8.15898533E-04  2.46920808E-04  8.83106164E-05  4.58025768E-05  3.09334698E-05  2.36104655E-05  2.05173832E-05  1.74754798E-05  1.64539677E-05  1.76620073E-05  2.06385879E-05  3.18613524E-05  5.83185318E-05  1.43134868E-04  4.20227804E-04       0.00103895       0.00236591
    5.96484276E-05  4.42232122E-05  4.14364920E-05  5.08959637E-05  7.48903478E-05  9.51162987E-05  1.09174465E-04  1.00943173E-04  1.12183695E-04  1.53308164E-04  1.82029095E-04  2.13899722E-04  1.88797602E-04  1.54900118E-04  1.25868108E-04  1.07240665E-04  1.27386345E-04  1.59511961E-04  1.82860606E-04  2.06953543E-04
    1.56866554E-04  1.72747625E-04  1.38560750E-04  9.11060028E-05  5.59343220E-05  4.00769926E-05  2.43710017E-05  1.46251100E-05  1.17272073E-05  1.21700337E-05  2.00260789E-05  4.23715235E-05  7.63586595E-05  1.14869482E-04  1.94076407E-04  2.79768798E-04  3.45531837E-04  3.58401017E-04  3.49194485E-04  3.54464159E-04
    2.71410278E-04  1.42521207E-04  1.25536812E-04  1.38269212E-04  1.61667525E-04  1.86143365E-04  1.99012515E-04  1.62206273E-04  1.71592828E-04  1.61810424E-04  1.52637400E-04  1.34789325E-04  1.08921150E-04  1.00220458E-04  9.95010272E-05  1.11297816E-04  1.42247098E-04  1.81031804E-04  2.58255156E-04  2.96027519E-04
    3.92278785E-04  3.49345415E-04  2.35801255E-04  1.63349658E-04  1.48959486E-04  1.56328721E-04  1.79405353E-04  1.66049864E-04  1.86655497E-04  2.06434309E-04  1.57591736E-04  1.42356715E-04  1.21237544E-04  1.08374922E-04  1.54327475E-04  3.06988513E-04  7.83459900E-04       0.00169101       0.00274079       0.00285938
         0.00219812       0.00142042  7.73468136E-04  4.36396052E-04  1.53052311E-04  6.64160607E-05  3.42503091E-05  3.20401727E-05  2.94799746E-05  3.27945009E-05  3.49899936E-05  3.37109521E-05  5.13454813E-05  7.02591099E-05  1.26045357E-04  3.59142721E-04  9.37403769E-04       0.00166137       0.00280836       0.00271402
    1.60905813E-05  1.75418432E-05  2.21224432E-05  4.06343236E-05  6.15576628E-05  9.20179422E-05  1.77825071E-04  2.71837071E-04  4.18623767E-04  5.70791143E-04  4.98974420E-04  4.42552653E-04  3.01085837E-04  2.05837420E-04  1.63347875E-04  1.54424996E-04  1.72118494E-04  1.73769883E-04  1.71740363E-04  1.40147040E-04
    1.68531118E-04  2.14484712E-04  1.52725123E-04  1.03169484E-04  6.36852000E-05  4.23548760E-05  1.71651649E-05  9.46849216E-06  8.99323124E-06  1.41024785E-05  3.06322392E-05  6.79261988E-05  1.11432508E-04  1.85652379E-04  3.93582191E-04  8.43708632E-04       0.00159358       0.00173210       0.00126923  7.95937293E-04
    4.09441908E-04  2.12525690E-04  2.49433412E-04  3.40155360E-04  2.83230474E-04  2.13517253E-04  2.25704818E-04  2.12104312E-04  1.24558526E-04  1.19866289E-04  1.12119709E-04  1.00986480E-04  1.11994850E-04  1.25977180E-04  1.47159642E-04  1.85064062E-04  2.38890850E-04  3.66939449E-04  5.52658202E-04  5.59820568E-04
    5.77292601E-04  4.10964067E-04  2.85431299E-04  2.11330507E-04  2.00416991E-04  1.93060998E-04  1.71106208E-04  1.58513167E-04  2.02606556E-04  2.62489883E-04  2.15715121E-04  1.70315818E-04  1.43198125E-04  1.24363579E-04  2.40956401E-04  4.99994703E-04  8.18860343E-04       0.00141587       0.00128959  8.88817288E-04
    6.42519614E-04  4.07803961E-04  2.38971536E-04  1.36512755E-04  7.13316010E-05  4.04194341E-05  4.06274265E-05  4.32331768E-05  5.36039024E-05  7.06992415E-05  1.11201768E-04  1.16028884E-04  1.31110992E-04  2.03915287E-04  4.15127991E-04  7.41081067E-04       0.00119667       0.00173176       0.00163396       0.00122150
    8.61927760E-06  9.70130446E-06  1.85722436E-05  4.78496530E-05  1.00057345E-04  1.30646096E-04  1.34306773E-04  1.95253642E-04  3.16133936E-04  3.74032503E-04  3.04791256E-04  2.87205081E-04  3.10514489E-04  2.74701915E-04  2.13743981E-04  1.64162412E-04  1.74155769E-04  2.04974388E-04  1.99760217E-04  2.11376680E-04
    1.68141415E-04  1.84532086E-04  1.41263793E-04  1.00426268E-04  8.52184268E-05  5.52822078E-05  2.93036991E-05  1.84830926E-05  2.23925614E-05  3.71939999E-05  8.23720886E-05  2.18186480E-04  4.17022311E-04  7.02579221E-04       0.00156187       0.00299073       0.00336687       0.00262793       0.00168299  8.65275699E-04
    4.11956574E-04  2.93240396E-04  3.71840544E-04  2.77008298E-04  2.59364274E-04  2.04096635E-04  1.28670261E-04  1.21016787E-04  1.22121659E-04  1.31947034E-04  1.82360300E-04  2.02396002E-04  2.30180582E-04  2.36781283E-04  2.11789730E-04  2.83976006E-04  4.35246141E-04  4.93713421E-04  4.69042511E-04  4.52318383E-04
    4.19715307E-04  2.70273023E-04  1.48042342E-04  1.34904729E-04  1.15603080E-04  1.44263164E-04  1.81345022E-04  2.16618655E-04  2.51466974E-04  2.99350306E-04  2.74911923E-04  3.25851273E-04  4.18285321E-04  3.80780297E-04  4.17313644E-04  5.12590061E-04  5.46631978E-04  4.43685576E-04  2.80361624E-04  2.51061572E-04
    2.79279428E-04  2.21948333E-04  1.06828747E-04  6.57002677E-05  4.65916925E-05  4.56117230E-05  5.88894731E-05  9.23102595E-05  1.70579415E-04  2.13957054E-04  2.44690991E-04  2.57135156E-04  3.09896536E-04  3.77352921E-04  5.08541277E-04  5.69529994E-04  6.91954603E-04  6.80355560E-04  7.67634124E-04  9.00562546E-04
    6.29037006E-06  8.99531076E-06  2.02799426E-05  3.46824192E-05  4.52361728E-05  5.06136150E-05  5.01770094E-05  8.17777456E-05  1.54682890E-04  2.59936965E-04  3.08996321E-04  3.45303857E-04  3.08957622E-04  2.16505872E-04  1.82480494E-04  1.62365991E-04  1.42709392E-04  1.59975086E-04  1.74122475E-04  1.08994710E-04
    1.08757321E-04  1.06806146E-04  1.11389547E-04  1.13277084E-04  9.39815489E-05  5.51901713E-05  3.39126955E-05  3.52281702E-05  5.73617562E-05  1.51155983E-04  3.19137732E-04  5.61390836E-04  9.91875311E-04       0.00163150       0.00285700       0.00340158       0.00360544       0.00281180       0.00181083  9.27399701E-04
    5.16334571E-04  4.06283714E-04  2.95242453E-04  1.83621325E-04  1.43714426E-04  1.37423466E-04  1.30631981E-04  1.42948508E-04  1.46741992E-04  1.54547961E-04  1.53419077E-04  1.85272625E-04  1.98345904E-04  2.49511058E-04  3.73184293E-04  4.70286316E-04  5.53477997E-04  5.01622313E-04  3.62852217E-04  2.48878618E-04
    1.65474257E-04  1.06097454E-04  1.06677167E-04  1.02474990E-04  1.07846435E-04  1.08607859E-04  1.33289217E-04  1.47187279E-04  2.08945676E-04  2.71222238E-04  2.85113422E-04  3.70651930E-04  4.37133945E-04  3.98538401E-04  3.34127334E-04  3.05685328E-04  2.52219671E-04  2.50693894E-04  2.89524349E-04  2.97982129E-04
    1.92719575E-04  1.51212737E-04  1.03979959E-04  6.18710513E-05  5.53152138E-05  7.44705327E-05  1.20277466E-04  1.38948354E-04  1.50582225E-04  1.59884402E-04  2.01118200E-04  2.59572808E-04  2.89552178E-04  4.00053483E-04  5.16730435E-04  5.09408451E-04  6.40761258E-04  8.60920430E-04  7.28363417E-04  7.64974283E-04
    1.15622238E-05  1.55821720E-05  1.94700001E-05  2.92673035E-05  4.26854662E-05  4.27689055E-05  4.21829469E-05  6.20624162E-05  1.08076872E-04  1.39605572E-04  1.52126625E-04  1.70100077E-04  1.65424574E-04  1.44150580E-04  1.30890981E-04  9.21592780E-05  9.00607256E-05  8.78741459E-05  8.04718577E-05  8.29559425E-05
    7.76180287E-05  8.69242295E-05  1.19565419E-04  1.04385984E-04  7.59062291E-05  5.73832960E-05  6.43812671E-05  1.10353055E-04  2.72103062E-04  5.21525748E-04  9.53653143E-04       0.00184412       0.00201583       0.00202908       0.00230984       0.00278055       0.00237859       0.00214565       0.00152076  9.97783997E-04
    4.90570963E-04  2.87382449E-04  1.59904459E-04  8.59482961E-05  7.30593741E-05  7.87882722E-05  9.11250422E-05  9.72722409E-05  9.24917985E-05  1.18328511E-04  2.07215980E-04  3.08332739E-04  2.88601888E-04  3.23525404E-04  5.27893716E-04  5.94411455E-04  4.55447212E-04  2.54881498E-04  1.73965979E-04  1.21634161E-04
    7.41966157E-05  4.80020086E-05  5.71043071E-05  6.89473498E-05  7.88202810E-05  7.70388778E-05  7.34462736E-05  8.51035587E-05  6.73274554E-05  6.52465086E-05  9.39953423E-05  1.19643402E-04  1.52395590E-04  1.63385560E-04  1.90048632E-04  1.61655959E-04  1.27391782E-04  1.73527145E-04  2.19877451E-04  1.88244633E-04
    1.27501392E-04  8.23359525E-05  6.18654158E-05  5.85565899E-05  6.77421841E-05  9.18481998E-05  9.92662869E-05  9.24373576E-05  1.20141832E-04  1.42806963E-04  2.36475203E-04  3.02549478E-04  3.21101117E-04  4.36667015E-04  5.74912692E-04  7.89698008E-04  9.72394180E-04  7.24469440E-04  5.05834989E-04  5.87154482E-04
    1.25444681E-05  1.88008275E-05  2.22321397E-05  2.64238019E-05  3.35016666E-05  4.79159245E-05  5.21284663E-05  6.10698955E-05  5.26204651E-05  5.95683905E-05  8.79733629E-05  1.23414700E-04  1.40377549E-04  1.39405147E-04  1.15694984E-04  1.06019595E-04  1.08505402E-04  9.45777769E-05  8.69705015E-05  6.97244539E-05
    6.97244539E-05  6.97244539E-05  6.97244539E-05  6.03863323E-05  7.56243977E-05  9.87842320E-05  9.51994802E-05  1.02737634E-04  1.22864983E-04  1.96544391E-04  3.89996970E-04  8.87996364E-04       0.00130312       0.00176712       0.00209081       0.00285246       0.00315112       0.00282813       0.00163347       0.00123596
         0.00112728  9.01901932E-04  6.72275856E-04  3.79313697E-04  1.74627596E-04  9.66859398E-05  8.47053488E-05  7.19429796E-05  6.40290791E-05  5.95982843E-05  6.30998057E-05  9.57466188E-05  2.00147457E-04  2.65261113E-04  2.58736674E-04  2.91917182E-04  4.30292131E-04  4.00552771E-04  2.92756681E-04  2.06322805E-04
    1.65048851E-04  1.30520963E-04  8.24342626E-05  8.24342626E-05  8.24342626E-05  8.24342626E-05  4.87846060E-05  4.84279507E-05  5.64126949E-05  6.39456169E-05  5.65216527E-05  4.40302470E-05  3.16478682E-05  2.12420647E-05  2.35551524E-05  3.42785827E-05  3.59104994E-05  4.13600742E-05  5.13329904E-05  7.51564460E-05
    7.91278063E-05  6.21450759E-05  7.62994323E-05  1.09245013E-04  1.31126533E-04  8.56458667E-05  7.17692371E-05  8.02417853E-05  7.52194272E-05  6.50941747E-05  7.10268164E-05  8.22979834E-05  1.11200925E-04  1.37684012E-04  1.66759761E-04  2.19823046E-04  3.00300968E-04  3.82871014E-04  4.70307166E-04  7.58160920E-04
    9.22071489E-04  8.13079299E-04  6.29940346E-04  5.29269838E-04  6.52148439E-04       0.00106905  2.20757390E-05  2.24694964E-05  2.47532610E-05  2.63542521E-05  2.68006607E-05  2.12439128E-05  2.43014964E-05  3.14867065E-05  3.93147664E-05  1.05473382E-04  2.03557303E-04  2.16520892E-04  2.08900712E-04  1.90042428E-04
    1.90005409E-04  1.78879113E-04  1.80409447E-04  1.55095646E-04  1.27125294E-04  1.27125294E-04  1.27125294E-04  1.27125294E-04  8.60414929E-05  8.60414929E-05  8.60414929E-05  8.60414929E-05  8.60414929E-05  8.60414929E-05  8.60414929E-05  8.60414929E-05  8.60414929E-05  8.60414929E-05  8.60414929E-05  8.60414929E-05
    8.60414929E-05  8.60414929E-05  8.60414929E-05  8.60414929E-05  8.60414929E-05  8.60414929E-05  8.60414929E-05  8.60414929E-05  8.60414929E-05  8.60414929E-05  8.60414929E-05  8.60414929E-05  8.60414929E-05  8.60414929E-05  8.60414929E-05  8.60414929E-05  8.60414929E-05  8.60414929E-05  8.60414929E-05  8.60414929E-05
    8.60414929E-05  8.60414929E-05  8.60414929E-05  8.60414929E-05  8.60414929E-05  8.60414929E-05  8.60414929E-05  8.60414929E-05  9.07086169E-05  9.07086169E-05  9.07086169E-05  9.07086169E-05  9.24802000E-05  9.66625128E-05  1.20715230E-04  1.79838511E-04  3.32283910E-04  6.45601912E-04       0.00125364       0.00172971
         0.00213258       0.00190415       0.00193944       0.00226302       0.00193827  9.92865334E-04  6.49470062E-04  5.94380687E-04  6.74004851E-04  5.46507650E-04  3.97529904E-04  2.55621652E-04  1.75132140E-04  1.21773441E-04  7.94434475E-05  6.54133033E-05  5.02856777E-05  5.48491302E-05  1.07460381E-04  2.44628316E-04
    3.81898945E-04  3.47130293E-04  3.07850283E-04  2.98243727E-04  2.54458729E-04  2.02743118E-04  1.57979235E-04  1.28811544E-04  9.43696877E-05  9.63886606E-05  9.63886606E-05  9.63886606E-05  9.63886606E-05  9.88068135E-05  9.88068135E-05  9.88068135E-05  9.88068135E-05  9.88068135E-05  9.88068135E-05  9.88068135E-05
    9.88068135E-05  9.88068135E-05  9.88068135E-05  9.88068135E-05  9.88068135E-05  9.88068135E-05  9.88068135E-05  9.88068135E-05  9.88068135E-05  9.88068135E-05  9.88068135E-05  9.88068135E-05  9.88068135E-05  9.88068135E-05  9.88068135E-05  9.88068135E-05  9.88068135E-05  9.88068135E-05  9.88068135E-05  9.88068135E-05
    9.88068135E-05  9.88068135E-05  9.88068135E-05  9.88068135E-05  9.88068135E-05  9.88068135E-05  9.88068135E-05  9.88068135E-05  9.88068135E-05  9.88068135E-05  9.88068135E-05  9.88068135E-05  9.88068135E-05  1.12460568E-04  1.12460568E-04  1.12460568E-04  1.12460568E-04  1.49577864E-04  1.56695200E-04  9.64874212E-05
    4.58521167E-05  3.26859670E-05  2.24621002E-05  1.69937127E-05  1.82696977E-05  2.27763182E-05  3.84531008E-05  4.95017869E-05  7.80416811E-05  1.09736084E-04  1.19875636E-04  1.13300985E-04  1.28152786E-04  9.84746038E-05  6.57808820E-05  4.95800622E-05  5.53065759E-05  6.53583784E-05  5.88331484E-05  5.74006624E-05
    8.63096301E-05  1.01379665E-04  1.01339211E-04  1.07758814E-04  1.62651024E-04  2.30492058E-04  3.41523223E-04  4.19746462E-04  4.21979722E-04  5.02260882E-04  7.02711793E-04  6.04306816E-04  5.52256665E-04  5.35063161E-04       0.00100684       0.00191618  3.22402189E-05  3.00861567E-05  2.02295498E-05  1.83334370E-05
    1.47475808E-05  1.55024797E-05  1.75768779E-05  2.61597916E-05  4.50723871E-05  9.25784169E-05  1.23002095E-04  1.39036345E-04  1.57537440E-04  1.53272185E-04  1.95910342E-04  2.87803709E-04  3.40074980E-04  2.69486799E-04  2.05693750E-04  1.61741039E-04  1.61741039E-04  1.61741039E-04  1.61741039E-04  1.09003507E-04
    7.75921301E-05  9.78402091E-05  1.28613969E-04  2.28518255E-04  4.70007184E-04  9.76389098E-04       0.00178344       0.00168020       0.00147641  9.65081587E-04  6.67799502E-04  4.43574228E-04  3.96347701E-04  2.95704879E-04  3.05056094E-04  3.03945866E-04  2.53655077E-04  2.26263855E-04  2.34682849E-04  1.72949688E-04
    1.04980361E-04  7.76468079E-05  5.91539163E-05  4.89617994E-05  5.23694574E-05  7.74334320E-05  1.37089288E-04  2.26810366E-04  2.49516439E-04  2.01669302E-04  1.50117442E-04  1.41935949E-04  1.47115284E-04  1.40292586E-04  1.35225479E-04  1.52741326E-04  2.03038102E-04  3.57675229E-04  4.66670584E-04  4.66670584E-04
    4.66670584E-04  4.66670584E-04  5.03396474E-04  3.32374550E-04  1.82970069E-04  1.02785922E-04  6.10974718E-05  3.94528359E-05  3.15430086E-05  2.56080285E-05  2.79670493E-05  5.22556689E-05  1.03416408E-04  1.70400794E-04  2.95346220E-04  4.32411654E-04  3.11517712E-04  2.29367479E-04  1.78602513E-04  1.01561777E-04
    6.79996406E-05  8.64258767E-05  8.61710841E-05  7.38544637E-05  5.18575281E-05  4.64204496E-05  4.16559389E-05  4.83085526E-05  6.21863723E-05  1.01041761E-04  1.48574783E-04  1.86958659E-04  2.58256955E-04  2.93269191E-04  3.13859244E-04  3.12392045E-04  3.04177211E-04  2.78225894E-04  3.61521220E-04  7.86532095E-04
         0.00205075       0.00324444  3.92901807E-05  4.06098380E-05  2.62159883E-05  2.06237755E-05  1.64686990E-05  1.34081720E-05  1.76327626E-05  2.80661271E-05  5.10511283E-05  6.57589263E-05  7.60165379E-05  7.12049187E-05  7.94902202E-05  1.40103209E-04  3.21953397E-04  4.43303007E-04  5.53275097E-04  4.23462165E-04
    2.33259436E-04  1.21875142E-04  7.19570213E-05  7.46635290E-05  1.26113932E-04  2.06994573E-04  3.27748240E-04  5.91612845E-04  8.07693970E-04  8.46131986E-04  7.97865915E-04  6.68234804E-04  4.15780120E-04  3.17659497E-04  2.76174749E-04  3.13913937E-04  3.30290838E-04  2.56319747E-04  2.17815160E-04  2.51855130E-04
    2.07611449E-04  1.29293120E-04  7.41398184E-05  5.94220752E-05  6.97214665E-05  6.72883222E-05  6.00687582E-05  6.61083952E-05  9.94227218E-05  1.41634041E-04  1.64683752E-04  1.37539283E-04  1.13671887E-04  1.11190645E-04  1.24457576E-04  1.40825321E-04  1.45468200E-04  1.83388049E-04  3.37426418E-04  5.41954860E-04
    8.39682613E-04       0.00106313  9.73403322E-04  4.71922308E-04  3.17274378E-04  1.93496272E-04  1.05788476E-04  6.78295960E-05  5.04093141E-05  6.27599287E-05  8.07755163E-05  1.47948440E-04  2.99475577E-04  4.71810708E-04  4.13625424E-04  3.45678441E-04  2.16032053E-04  1.95848054E-04  1.50764761E-04  1.34789553E-04
    1.43778629E-04  1.47377808E-04  1.25374435E-04  8.92458870E-05  6.82690757E-05  5.53767298E-05  5.89728521E-05  6.62721297E-05  8.82876358E-05  1.30401115E-04  1.47619055E-04  1.71356590E-04  1.91726590E-04  1.85913760E-04  2.54642805E-04  3.17154053E-04  4.44870775E-04  7.79412255E-04       0.00157539       0.00247867
         0.00246659       0.00205220  2.03190352E-05  1.79566033E-05  1.58923906E-05  1.72502478E-05  1.44832898E-05  1.62218153E-05  2.90468079E-05  5.12798867E-05  5.81739047E-05  7.08686228E-05  7.18344111E-05  9.21522595E-05  1.34328233E-04  1.83716884E-04  2.76304264E-04  3.27698328E-04  2.56965072E-04  1.73187975E-04
    1.42595357E-04  1.21877211E-04  1.08383274E-04  1.34980806E-04  1.80178986E-04  2.11384563E-04  2.58890965E-04  3.44091497E-04  3.61518753E-04  4.56308735E-04  3.67058229E-04  3.64129287E-04  2.64041545E-04  1.78762459E-04  1.81249414E-04  1.91401736E-04  2.03218966E-04  2.18132911E-04  2.32912931E-04  2.17332956E-04
    1.59545326E-04  1.18171026E-04  1.02339446E-04  1.22658957E-04  9.40496184E-05  8.48749834E-05  7.70064150E-05  8.78273041E-05  7.97175594E-05  7.59579294E-05  7.99328921E-05  9.00123843E-05  1.23207940E-04  2.15434710E-04  2.46617863E-04  3.49252032E-04  3.85491155E-04  3.86864835E-04  5.91540775E-04  8.68285741E-04
    8.83184961E-04  7.15982637E-04  6.09378281E-04  6.70356903E-04  4.77588542E-04  2.74021807E-04  2.15555089E-04  1.88336189E-04  1.76465320E-04  2.03956054E-04  2.32406864E-04  4.57753517E-04  5.80209479E-04  5.92326507E-04  5.30572922E-04  3.83695756E-04  2.36665981E-04  1.74399965E-04  1.43520653E-04  1.46577638E-04
    1.33178894E-04  1.37435210E-04  1.44028522E-04  1.20468070E-04  1.08833838E-04  9.59315195E-05  1.00204985E-04  1.06583865E-04  9.31310656E-05  8.28529124E-05  1.42194550E-04  1.73431908E-04  1.96833664E-04  2.25891121E-04  3.20092630E-04  5.64337343E-04  8.79527481E-04       0.00164808       0.00236073       0.00256533
         0.00228400       0.00193119  2.09546571E-05  2.38182088E-05  2.88331377E-05  3.20931583E-05  3.60179599E-05  4.83355467E-05  4.41065902E-05  3.04786044E-05  2.52252276E-05  4.47243774E-05  7.97846512E-05  1.12477119E-04  1.36167816E-04  1.92108481E-04  1.83217199E-04  2.35508190E-04  2.56759882E-04  1.93762721E-04
    1.42796128E-04  1.19320186E-04  1.14721660E-04  1.53591890E-04  1.85452846E-04  1.88109205E-04  1.13005002E-04  1.03925555E-04  1.33053123E-04  1.76387007E-04  1.83531043E-04  1.69425250E-04  1.46187000E-04  1.28311808E-04  1.08596915E-04  1.26124661E-04  1.39210131E-04  2.21222100E-04  2.67570645E-04  2.60386728E-04
    1.71961983E-04  1.20499598E-04  9.88178129E-05  8.37306694E-05  8.64488412E-05  1.11928250E-04  9.08401280E-05  6.31951472E-05  5.61871106E-05  6.56020489E-05  9.32155700E-05  1.53607234E-04  2.73027000E-04  5.51309789E-04  7.13056515E-04  6.52342052E-04  5.53691585E-04  6.42683596E-04  8.14588550E-04  9.06145682E-04
    9.22267017E-04       0.00109428  9.48602833E-04  7.82343059E-04  5.69130110E-04  7.11528040E-04  8.01489859E-04  5.83656344E-04  5.00206953E-04  5.90741755E-04  7.48644889E-04  8.84860271E-04  6.67110654E-04  4.86735078E-04  3.97777978E-04  2.98719605E-04  2.15625581E-04  1.65633237E-04  1.44825589E-04  1.12023409E-04
    1.56805803E-04  2.03101636E-04  1.93025382E-04  1.78635803E-04  1.29514242E-04  1.24527980E-04  1.20771787E-04  1.02067712E-04  1.20064901E-04  1.75680737E-04  2.14375212E-04  1.93013203E-04  2.29530199E-04  4.41839952E-04  7.97411964E-04       0.00101009       0.00141240       0.00238971       0.00274647       0.00214403
         0.00132203       0.00101480  3.79748232E-05  4.25151714E-05  3.83011744E-05  4.11336748E-05  3.86732415E-05  3.28982904E-05  2.89126327E-05  3.03638260E-05  4.91895885E-05  7.35789519E-05  1.12093569E-04  1.32385059E-04  1.26917648E-04  1.38532134E-04  1.78913541E-04  2.05468034E-04  1.65789754E-04  1.22783456E-04
    1.11968517E-04  1.16893850E-04  1.43550419E-04  1.49676761E-04  1.12705045E-04  7.91744111E-05  7.20893866E-05  7.10979399E-05  1.13454727E-04  1.53082269E-04  1.96469840E-04  1.78892015E-04  1.90823467E-04  1.47570154E-04  1.70102328E-04  2.69268954E-04  3.40073546E-04  4.19507209E-04  4.44404780E-04  3.17592120E-04
    3.11700870E-04  2.44897814E-04  1.96375258E-04  1.82441558E-04  1.59663783E-04  1.31977603E-04  9.66221410E-05  8.04915026E-05  9.13679774E-05  1.38783936E-04  2.56015367E-04  3.04976602E-04  3.13236492E-04  4.04268195E-04  5.28776471E-04  4.60423810E-04  5.31996170E-04  6.66345527E-04  7.86073242E-04  9.39173730E-04
    8.34842994E-04  8.69058170E-04  7.30586073E-04  6.84170630E-04  8.50554839E-04  9.27781009E-04  9.58304517E-04  8.87990612E-04  8.53954527E-04  8.53121605E-04  5.70547986E-04  4.62045739E-04  3.64049281E-04  3.32184359E-04  2.12399426E-04  1.58935911E-04  1.61520755E-04  1.41519742E-04  1.32844760E-04  1.84078657E-04
    2.28189247E-04  2.72170880E-04  2.75824929E-04  1.82441510E-04  1.31820097E-04  1.04693091E-04  8.85860004E-05  1.52599922E-04  1.95913113E-04  1.85152076E-04  1.66393428E-04  1.72850561E-04  2.45427895E-04  4.87433801E-04  7.05803003E-04       0.00141992       0.00164860       0.00146860       0.00110303  8.75404256E-04
    5.48719009E-04  3.69010560E-04  3.12555974E-05  3.49252453E-05  4.45504276E-05  3.89396451E-05  2.57614442E-05  2.47902445E-05  3.90184555E-05  6.16551759E-05  7.94092061E-05  1.33685727E-04  1.54969631E-04  1.28022174E-04  1.32676946E-04  1.96591735E-04  2.31159316E-04  2.14328770E-04  1.79615593E-04  1.49923758E-04
    1.63361781E-04  1.80660760E-04  1.48590107E-04  1.05680793E-04  9.15467622E-05  1.17668000E-04  1.59123609E-04  1.62415313E-04  1.55639831E-04  2.05147473E-04  3.21763465E-04  3.50800974E-04  3.83899620E-04  4.00986349E-04  4.83288061E-04  4.77366804E-04  5.16754042E-04  5.75984484E-04  5.83642077E-04  4.84169395E-04