# File generated by Flopy version 3.6.0 on 09/25/2024 at 16:43:15.
BEGIN options
  PRINT_OPTION  summary
  COMPLEXITY  complex
END options

BEGIN linear
  LINEAR_ACCELERATION  bicgstab
END linear

