# File generated by Flopy version 3.7.0 on 06/04/2024 at 14:34:02.
BEGIN options
END options

BEGIN griddata
  strt
    INTERNAL  FACTOR  1.0
        15.00000000      15.00000000      15.00000000      15.00000000      15.00000000      15.00000000      15.00000000      15.00000000      15.00000000      15.00000000      15.00000000      15.00000000      15.00000000      15.00000000      15.00000000      15.00000000      15.00000000      15.00000000      15.00000000      15.00000000
        15.00000000      15.00000000      15.00000000      15.00000000      15.00000000      15.00000000      15.00000000      15.00000000      15.00000000      15.00000000      15.00000000      15.00000000      15.00000000      15.00000000      15.00000000      15.00000000      15.00000000      15.00000000      15.00000000      15.00000000
        15.00000000      15.00000000      15.00000000      15.00000000      15.00000000      15.00000000      15.00000000      15.00000000      15.00000000      15.00000000      15.00000000      15.00000000      15.00000000      15.00000000      15.00000000      15.00000000      15.00000000      15.00000000      15.00000000      15.00000000
        15.00000000      15.00000000      15.00000000      15.00000000      15.00000000      15.00000000      15.00000000      15.00000000      15.00000000      15.00000000      15.00000000      15.00000000      15.00000000      15.00000000      15.00000000      15.00000000      15.00000000      15.00000000      15.00000000      15.00000000
        15.00000000      15.00000000      15.00000000      15.00000000      15.00000000      15.00000000      15.00000000      15.00000000      15.00000000      15.00000000      15.00000000      15.00000000      15.00000000      15.00000000      15.00000000      15.00000000      15.00000000      15.00000000      15.00000000      15.00000000
        15.00112827      15.00022996      14.99957175      14.99924752      14.99936158      14.99953586      14.99951870      14.99951257      14.99951235      14.99955150      14.99967555      14.99977737      14.99792006      14.99536261      14.99303863      14.98847859      14.98394713      14.98187792      14.98131017      14.98384057
        15.00218747      15.04099703      15.09592142      15.08282799      15.07301835      15.06437805      15.07475563      15.06160872      15.05424978      15.06170996      15.06736675      15.05832154      15.03162186      15.01845108      15.01846565      15.02414154      15.03231807      15.04175857      15.04855143      15.04362957
        15.03877798      15.03812084      15.03518675      15.03671558      15.04036248      15.04883196      15.05601173      15.06194394      15.07935288      15.09324536      15.09114620      15.08576302      15.09104519      15.07105298      15.06458792      15.08744249      15.12234460      15.15181466      15.15327345      15.14215895
        15.11163694      15.07089357      15.05493509      15.03919742      15.02411465      15.01591633      15.01751358      15.01483144      15.01069707      15.01341941      15.01381993      15.01429583      15.01387303      15.01564858      15.02096430      15.02840524      15.04339993      15.06019833      15.07347719      15.07915269
        15.08095197      15.08223565      15.08775277      15.09142549      15.09044131      15.09467963      15.10301417      15.10301609      15.12865955      15.14727144      15.17515625      15.20921521      15.22214666      15.19824268      15.22403298      15.26113819      15.27032367      15.25311768      15.25396471      15.24075724
        15.00076696      14.99984835      14.99892874      14.99853078      14.99834262      14.99864069      14.99882903      14.99873277      14.99868650      14.99868113      14.99846539      14.99784881      14.99347751      14.98726703      14.98223148      14.97562852      14.96660913      14.96173354      14.95987131      14.96345204
        14.97938548      15.01783725      15.10311869      15.13079392      15.11737446      15.11525753      15.12132947      15.11555712      15.10305888      15.10884545      15.10991743      15.10218550      15.07264689      15.04955646      15.04377129      15.05142945      15.06076550      15.07269379      15.08427860      15.08290088
        15.07848883      15.07786540      15.07793947      15.07959885      15.07975828      15.09052589      15.10760825      15.11890887      15.14074172      15.15877929      15.16335251      15.15656255      15.15911810      15.14449642      15.13054754      15.16692202      15.22920369      15.26706868      15.27251998      15.24872677
        15.21916325      15.14911953      15.11732054      15.09470474      15.06359920      15.03959456      15.03441950      15.03192484      15.02507239      15.02433741      15.02713426      15.02815730      15.02839739      15.03011664      15.03745475      15.05296335      15.08173135      15.10836783      15.12920879      15.14116218
        15.14807084      15.15062999      15.15483398      15.16414792      15.17057969      15.18100835      15.19873247      15.20376424      15.22685817      15.26269635      15.30697383      15.34584333      15.38105616      15.37900775      15.38156546      15.41992581      15.43532890      15.42152667      15.42453063      15.42321674
        14.99922794      14.99846641      14.99780279      14.99750370      14.99707276      14.99718522      14.99756702      14.99757605      14.99752601      14.99723025      14.99679218      14.99489688      14.98752379      14.97668126      14.96732709      14.95879486      14.94864425      14.93984620      14.93435577      14.93935332
        14.95248359      14.98161655      15.07050407      15.14947225      15.14688677      15.15076216      15.15173442      15.15254008      15.14410041      15.14474848      15.14576255      15.13980754      15.11614518      15.08898854      15.07692947      15.08089785      15.08735877      15.09867705      15.10974631      15.11438094
        15.11342872      15.11685184      15.11986770      15.12223464      15.12290799      15.13196766      15.14828390      15.16487644      15.18600071      15.20352471      15.21548487      15.21296899      15.21074636      15.20973417      15.20661538      15.24148756      15.31175107      15.34656180      15.35089292      15.33248339
        15.30821006      15.24343979      15.18259485      15.15909302      15.11700145      15.07681702      15.05940483      15.05227191      15.04206550      15.03653056      15.04033358      15.04162484      15.04375688      15.04581254      15.05243476      15.06780520      15.10161221      15.13662050      15.16926795      15.18973415
        15.20076375      15.20734533      15.20980347      15.21782199      15.23923702      15.25767525      15.27915521      15.30051876      15.31447902      15.36191007      15.40723596      15.44284885      15.47791165      15.50135293      15.49685425      15.51766275      15.52914771      15.52444522      15.52438266      15.52959750
        14.99714312      14.99619994      14.99580868      14.99561655      14.99535070      14.99500638      14.99514204      14.99566306      14.99576007      14.99518880      14.99428807      14.99105336      14.98040180      14.96311537      14.94889200      14.93877892      14.92906113      14.91753363      14.90917446      14.91087450
        14.92544076      14.95332605      15.03237628      15.13755039      15.16883375      15.17285255      15.17541013      15.17707180      15.17433358      15.17165730      15.17599007      15.17353979      15.15842774      15.13274768      15.11833152      15.11281432      15.11520205      15.12088317      15.12949819      15.13845297
        15.14299716      15.15009514      15.15638203      15.15928412      15.16347596      15.16845128      15.17899570      15.19802773      15.21738551      15.23533209      15.25254417      15.25844402      15.25540574      15.26526909      15.27853273      15.31245494      15.38043456      15.40426556      15.39097285      15.37719988
        15.35446267      15.31406726      15.24983479      15.21764951      15.17306764      15.12194782      15.09418485      15.07824066      15.06342861      15.05072318      15.05131618      15.05448407      15.05861251      15.06222055      15.06835858      15.07958923      15.10813667      15.15151293      15.19172469      15.22350108
        15.23796279      15.24722467      15.25358057      15.26447858      15.29083998      15.32243431      15.34938108      15.38726641      15.40448722      15.44771889      15.48163577      15.51300983      15.53956616      15.57025509      15.57528770      15.57714869      15.58583726      15.58543698      15.58335096      15.59037120
        14.99414908      14.99324279      14.99284518      14.99274289      14.99254421      14.99182067      14.99142061      14.99204471      14.99266274      14.99253022      14.99040676      14.98640506      14.97129862      14.94612727      14.92912951      14.91720725      14.90738514      14.89667023      14.88865952      14.88338875
        14.89519651      14.92220418      14.99095486      15.11267926      15.17759380      15.18679601      15.19197347      15.19505495      15.19783951      15.19605508      15.20025885      15.20009425      15.19350980      15.17393910      15.16039191      15.14912900      15.14697935      15.14478629      15.15005286      15.15880175
        15.16754788      15.17732894      15.18639163      15.19030833      15.19562291      15.19834847      15.20683517      15.22319417      15.24188485      15.26227177      15.27992940      15.29359527      15.30203278      15.31801299      15.34498388      15.38728182      15.44226344      15.44822184      15.40259012      15.37818204
        15.36013771      15.33238459      15.29316528      15.25163953      15.21256679      15.16384836      15.13313634      15.11160432      15.09052666      15.06824640      15.06295457      15.06647625      15.07101177      15.07638675      15.08203305      15.08961564      15.10599048      15.15488002      15.20211535      15.24534185
        15.26613671      15.27453625      15.28666623      15.30145939      15.32723593      15.37379918      15.41724080      15.45240707      15.48103979      15.50896793      15.53694884      15.56409932      15.58489230      15.60985896      15.62249810      15.61963718      15.62106305      15.62503538      15.62417286      15.63037986
        14.98965396      14.98935309      14.98865961      14.98848772      14.98823361      14.98767044      14.98690452      14.98695018      14.98771525      14.98787494      14.98459947      14.97925733      14.96007340      14.93056114      14.90977174      14.89634079      14.88508690      14.87614736      14.86844473      14.86102028
        14.86450830      14.89220557      14.95150719      15.07340564      15.16921705      15.19581445      15.20264690      15.20768973      15.21411517      15.21699088      15.21849414      15.22137359      15.22013761      15.20815164      15.19415600      15.18525714      15.18171484      15.17632631      15.17307659      15.17922946
        15.19009168      15.20216850      15.21040380      15.21704556      15.22103539      15.22505158      15.23222328      15.24665919      15.26634503      15.28879611      15.30456629      15.32030396      15.34107253      15.37511691      15.41364801      15.45554874      15.48903013      15.47131410      15.39545871      15.35072128
        15.33021164      15.31058514      15.29480603      15.26276933      15.23070439      15.19172798      15.16478649      15.14593941      15.12064202      15.09271063      15.07598389      15.07685657      15.08092545      15.08663646      15.09180962      15.09724887      15.10654639      15.14923639      15.20682547      15.25754034
        15.28792657      15.29914390      15.31271733      15.32839595      15.35919553      15.41617412      15.47472300      15.50821218      15.54138308      15.55904714      15.57954642      15.59881094      15.61635992      15.63550457      15.64936871      15.65256477      15.64947553      15.65212742      15.65391858      15.65853880
        14.98323281      14.98328924      14.98246712      14.98228317      14.98223687      14.98244972      14.98167456      14.98135277      14.98126848      14.98052783      14.97699502      14.96871873      14.94840027      14.91629111      14.89144094      14.87604196      14.86392614      14.85447307      14.84666780      14.84102450
        14.83719100      14.86217076      14.91797395      15.03046561      15.14446094      15.19652842      15.21020194      15.21785273      15.22595695      15.23382228      15.23545511      15.23927002      15.23874847      15.23392019      15.22185228      15.21532561      15.21299178      15.20983563      15.20173866      15.20373453
        15.21423085      15.22531241      15.23281947      15.23916054      15.24444121      15.25040851      15.25728564      15.27101267      15.29172491      15.31307563      15.32787409      15.34134192      15.36425455      15.42496379      15.47757563      15.50465160      15.51412777      15.47662239      15.37668927      15.30718387
        15.28135355      15.26948568      15.26645461      15.25417016      15.23597376      15.20838796      15.18431410      15.17310411      15.14830912      15.11634139      15.09108740      15.08751076      15.09001120      15.09451250      15.09885108      15.10336217      15.11043698      15.13881472      15.20057053      15.26292735
        15.30422231      15.32308729      15.33401846      15.35278771      15.38623689      15.44928049      15.51866778      15.55958004      15.58350206      15.59833374      15.61061209      15.62504297      15.63962117      15.65417513      15.66573698      15.67274729      15.67228510      15.67170365      15.67536112      15.68028594
        14.97532747      14.97521063      14.97437661      14.97427853      14.97447620      14.97574414      14.97598354      14.97493775      14.97358512      14.97063083      14.96507499      14.95371638      14.93365895      14.90141668      14.87409120      14.85656448      14.84335004      14.83097175      14.82276201      14.81579679
        14.81404211      14.83199001      14.88474332      14.98507049      15.10943546      15.18740670      15.21634211      15.22784241      15.23685962      15.24681691      15.25100351      15.25311824      15.25353424      15.25184233      15.24468251      15.23843935      15.23687572      15.23684560      15.23164197      15.22971101
        15.23594342      15.24544764      15.25318281      15.25861170      15.26702106      15.27345134      15.28208721      15.29477013      15.31603516      15.33410616      15.34729706      15.35684567      15.37518254      15.44362988      15.52129424      15.53597195      15.51443798      15.44765557      15.32170182      15.24451464
        15.22166825      15.22169419      15.22918415      15.23777201      15.23374789      15.21733758      15.19600920      15.18925814      15.17197104      15.13886691      15.11027903      15.09909276      15.09879023      15.10098644      15.10420847      15.10844488      15.11500409      15.13214570      15.18564294      15.25988030
        15.31551682      15.34257911      15.35452092      15.37506977      15.40488926      15.47899813      15.55643107      15.59890113      15.61508329      15.62825380      15.63704672      15.64691429      15.65735042      15.66789314      15.67702153      15.68342386      15.68745503      15.68826418      15.69202675      15.69543500
        14.96664239      14.96670865      14.96609862      14.96508074      14.96568428      14.96768720      14.96937218      14.96763343      14.96484107      14.95930355      14.95003814      14.93700322      14.91683616      14.88667382      14.85873175      14.83814431      14.82054381      14.80596044      14.79171046      14.78185859
        14.78598409      14.80224974      14.85997730      14.94879337      15.06819197      15.16993600      15.21853161      15.23741362      15.24762535      15.25774436      15.26378980      15.26505533      15.26581775      15.26504052      15.26141644      15.25690143      15.25453299      15.25593350      15.25481508      15.25210811
        15.25495918      15.26258890      15.27053679      15.27779422      15.28754341      15.29497644      15.30447052      15.31702139      15.33527958      15.35007646      15.36078494      15.36831746      15.38295356      15.43773821      15.52327433      15.53611885      15.48384492      15.36517115      15.17875698      15.12266868
        15.14157817      15.17349471      15.19687991      15.21964888      15.22922231      15.22313043      15.20692464      15.19922041      15.19016082      15.15947187      15.12696977      15.11042900      15.10628028      15.10619100      15.10822476      15.11186073      15.11815744      15.13180480      15.16745102      15.24180632
        15.31793329      15.35756327      15.37495633      15.39455664      15.42774793      15.50214392      15.58707033      15.62979265      15.64220364      15.65035382      15.65857219      15.66454350      15.67142829      15.67909139      15.68574514      15.69059623      15.69610615      15.70037224      15.70435940      15.70634213
        14.95863514      14.95922944      14.95869594      14.95662334      14.95676695      14.95827859      14.96111264      14.95973922      14.95519982      14.94752281      14.93560582      14.92086114      14.90069335      14.87434610      14.84695778      14.82128715      14.79958756      14.78015162      14.75097064      14.74522678
        14.74380896      14.71496681      14.71232991      14.74575040      14.77516011      14.83634196      14.92810117      15.03886567      15.14989048      15.21656126      15.24609105      15.25926919      15.26841285      15.27426215      15.27599252      15.27590297      15.27593359      15.27422074      15.27128196      15.26957053
        15.27016684      15.27188746      15.27120508      15.27246766      15.27723280      15.28568407      15.29535180      15.30509430      15.31509487      15.32382323      15.33501228      15.34908043      15.36259086      15.37218828      15.37948484      15.39257057      15.42853260      15.50002623      15.50916533      15.43274782
        15.23362078      14.91307131      14.89409149      14.95761521      14.63679569      14.78196827      15.03683498      15.13021987      15.17585432      15.20899921      15.22902486      15.23042467      15.21872630      15.20839239      15.20178478      15.17310512      15.13572950      15.11865058      15.11132832      15.10965057
        15.11048117      15.11303780      15.11848523      15.13121090      15.15709429      15.21499242      15.30509336      15.36883498      15.39539009      15.41461840      15.44929938      15.51817196      15.62421261      15.66163612      15.66517203      15.66789041      15.67484669      15.67891285      15.68289693      15.68800581
        15.69289291      15.69674890      15.70162072      15.70838102      15.71405383      15.71728862      14.95282725      14.95337976      14.95238121      14.95030716      14.94877008      14.94856282      14.95103470      14.95043342      14.94507133      14.93611847      14.92285815      14.90644927      14.88789691      14.86524974
        14.83944657      14.81026091      14.78577187      14.76326135      14.73502123      14.71016064      14.73137706      14.70574250      14.68264104      14.65845333      14.65620148      14.61629016      14.58916538      14.58875801      14.54289985      14.51236572      14.51225538      14.39886762      14.65950877      14.67871635
        14.59941467      14.62491690      14.54461285      14.57356896      14.51211775      14.56287255      14.60770738      14.65469681      14.65696592      14.59908652      14.54468446      14.51222907      14.57378613      14.56320850      14.62482685      14.60824559      14.67741448      14.65681961      14.54263310      14.57337628
        14.57358015      14.58905032      14.61211901      14.61268984      14.62968087      14.65430642      14.65685225      14.67276914      14.70258522      14.72732670      14.69817958      14.72324056      14.75910765      14.81359492      14.90587159      15.01808970      15.13468141      15.21581573      15.25415682      15.27016308
        15.27758342      15.28345483      15.28555155      15.28494089      15.28545150      15.28589889      15.28398787      15.28363819      15.28348206      15.28640028      15.28789534      15.28953634      15.29298293      15.30070387      15.31122098      15.32211201      15.33370879      15.34170287      15.35046913      15.36188711
        15.37540327      15.38493981      15.39307838      15.40628947      15.43304818      15.47711376      15.48173297      15.40004799      15.17956739      14.82002193      14.54331767      14.82653467      14.55823705      14.29066166      14.17933988      14.06965344      13.83078943      13.65976173      13.60976640      13.25690521
        13.01713012      12.99267314      12.01366817      14.33867181      14.66787758      13.83831081      14.13581472      13.35215314      13.64445534      13.07043572      13.56103566      14.01387043      14.56126281      14.12753583      13.72787490      13.29569566      13.04172837      13.56429009      13.50267261      13.97605440
        13.89576854      14.38256225      14.31646542      13.35461508      13.66613890      13.63982515      13.81024584      14.07464667      14.01747108      14.23739794      14.59389356      14.45425792      14.72359264      14.92222557      15.02134787      14.93890447      15.03093584      15.11947607      15.17373480      15.21319052
        15.23739545      15.24287988      15.23110956      15.21822085      15.20951979      15.18159866      15.14133766      15.12082206      15.11294039      15.11054138      15.11059499      15.11259542      15.11712396      15.12710884      15.14934088      15.19361746      15.28244996      15.37237835      15.41470578      15.43476527
        15.46689143      15.53958260      15.66296932      15.70223229      15.68880067      15.68382645      15.68640879      15.68921546      15.69177195      15.69526855      15.69922262      15.70258689      15.70661636      15.71328588      15.72059174      15.72527373      14.94906132      14.94829483      14.94709961      14.94480882
        14.94235500      14.94109595      14.94148584      14.94045989      14.93434135      14.92509390      14.91118713      14.89500886      14.87724592      14.85791360      14.83581521      14.80548867      14.77984530      14.76327072      14.73472974      14.69998521      14.69755957      14.72219562      14.72062689      14.72841267
        14.76074869      14.80258619      14.88476833      14.99759018      15.11951845      15.21681107      15.26389731      15.27998284      15.28692552      15.29201620      15.29377264      15.29413670      15.29448130      15.29621908      15.29713156      15.29684074      15.29714081      15.29943584      15.30332236      15.30706524
        15.31051823      15.31587206      15.32768637      15.33972473      15.35045735      15.35834565      15.36617666      15.37664020      15.38973359      15.40062510      15.41120115      15.42423784      15.44426607      15.47189584      15.47951633      15.42108377      15.28322439      14.97408164      14.70745174      14.84624967
        14.93760310      14.99866507      15.07423513      15.15956025      15.19857534      15.23278967      15.25568492      15.26240125      15.24709993      15.23073189      15.21840814      15.18857120      15.14382244      15.11876191      15.11161841      15.10920737      15.10913552      15.11077463      15.11517906      15.12285831
        15.14065226      15.17658003      15.25161293      15.35906226      15.42436978      15.44789362      15.47417701      15.54534151      15.68915278      15.75971219      15.72557502      15.69919295      15.69526471      15.69666706      15.69869960      15.70170535      15.70453620      15.70758424      15.71074742      15.71620633
        15.72298096      15.72847640      14.94594184      14.94373533      14.94223340      14.93995158      14.93761570      14.93574556      14.93427696      14.93181372      14.92501822      14.91500735      14.90029436      14.88421794      14.86668473      14.85151858      14.83369767      14.80484060      14.77968473      14.76831624
        14.75471303      14.74387061      14.75195991      14.76904780      14.79717856      14.86677287      14.97573784      15.10043284      15.21442600      15.27313524      15.28920655      15.29569909      15.29982964      15.30148967      15.30301288      15.30360443      15.30550850      15.30876455      15.30994854      15.31104214
        15.31300861      15.31897752      15.32349118      15.33011368      15.33496559      15.34603802      15.35661182      15.36610249      15.37453032      15.38188733      15.39207643      15.40604565      15.42015697      15.43116541      15.44238705      15.45847312      15.47695280      15.49134768      15.46248740      15.39532406
        15.24166418      15.14694002      15.18118603      15.21260046      15.23683483      15.26115899      15.27875084      15.28476645      15.26988507      15.24669707      15.23002670      15.19881510      15.14903556      15.11576022      15.10866420      15.10628015      15.10609613      15.10750344      15.11219523      15.12056784
        15.13347591      15.16046013      15.21528137      15.31216920      15.40187691      15.43469077      15.45497965      15.51998169      15.66537737      15.81532204      15.78275961      15.72134740      15.70362371      15.70220618      15.70368793      15.70683591      15.70896688      15.71126321      15.71373558      15.71785650
        15.72318272      15.72804647      14.94225994      14.93960476      14.93735409      14.93561719      14.93336602      14.93136477      14.92914289      14.92571537      14.91811500      14.90586924      14.89034494      14.87367208      14.85735370      14.84369438      14.83092628      14.80773980      14.78262400      14.77197204
        14.76522515      14.75950156      14.76395314      14.77357293      14.79080483      14.84854983      14.95322259      15.08141359      15.21014699      15.27996387      15.29694410      15.30329086      15.30744828      15.30938429      15.31139749      15.31236307      15.31406813      15.31801241      15.32227977      15.32556691
        15.32859373      15.33403099      15.34117904      15.35153138      15.35847076      15.36706515      15.37535245      15.38292646      15.39033355      15.39742490      15.40770215      15.42355540      15.43834495      15.44897809      15.45938983      15.47182841      15.48511155      15.49962844      15.49517686      15.46366108
        15.38022293      15.27046336      15.25440822      15.26006745      15.27416374      15.29211082      15.30087223      15.30411223      15.29249390      15.26585389      15.24306784      15.21023231      15.15739458      15.11411170      15.10541956      15.10274294      15.10195983      15.10261578      15.10702421      15.11723191
        15.12941800      15.14722610      15.17904442      15.24421997      15.33913494      15.38556782      15.40333293      15.45280021      15.58469574      15.80899078      15.83126842      15.74266824      15.71162935      15.70557753      15.70651481      15.71019482      15.71297887      15.71393353      15.71590218      15.71879692
        15.72261285      15.72687154      14.93807664      14.93536914      14.93259637      14.93093795      14.92914639      14.92724078      14.92477321      14.92101764      14.91343151      14.89931465      14.88125119      14.86335675      14.84780462      14.83530847      14.82626792      14.80881753      14.78638909      14.77420631
        14.76857516      14.76531398      14.76630551      14.77302383      14.78582093      14.83086505      14.92859293      15.06165171      15.20010612      15.28138946      15.30309906      15.30993942      15.31447813      15.31752987      15.31951471      15.32063860      15.32245841      15.32611119      15.33199675      15.33932419
        15.34561184      15.35171671      15.36271238      15.37346647      15.38551405      15.39282551      15.39786654      15.40058816      15.40666720      15.41311688      15.42281138      15.43823204      15.45228002      15.46385874      15.47375170      15.48268267      15.49383540      15.50463930      15.50876437      15.49102177
        15.43913153      15.35188566      15.30863190      15.29879444      15.30745787      15.31795386      15.32074699      15.32008885      15.31069594      15.28644503      15.25665329      15.21655478      15.16286225      15.11725415      15.10229693      15.09910554      15.09749864      15.09685855      15.09956626      15.10988171
        15.12388012      15.13709778      15.15288929      15.18171771      15.25155382      15.30933957      15.32825636      15.36457629      15.47226301      15.67367082      15.78900960      15.74223752      15.71209032      15.70515622      15.70567077      15.71002765      15.71543291      15.71617871      15.71708733      15.71892167
        15.72134235      15.72456574      14.93247693      14.93017027      14.92771486      14.92538807      14.92391802      14.92221072      14.91986862      14.91619859      14.90953524      14.89537834      14.87409486      14.85345879      14.83822504      14.82775010      14.82017940      14.80815183      14.78992817      14.77476680
        14.76787562      14.76428028      14.76415590      14.76782718      14.77918756      14.81200360      14.90196013      15.04592898      15.18869111      15.27769130      15.30772678      15.31553727      15.32060013      15.32467509      15.32713890      15.32872386      15.33120692      15.33458908      15.34147472      15.35209335