# File generated by Flopy version 3.6.0 on 04/09/2024 at 15:13:13.
BEGIN options
END options

BEGIN dimensions
  MAXBOUND  5
END dimensions

BEGIN period  1
  1 1138 -2.50000000E-03
  1 1223 -5.00000000E-03
  1 3240 -2.50000000E-02
  1 3345 -2.50000000E-05
  1 4389 -2.50000000E-04
END period  1

