# File generated by Flopy version 3.7.0 on 06/10/2024 at 09:13:55.
BEGIN options
  PRINT_OPTION  summary
  COMPLEXITY  complex
END options

BEGIN linear
  LINEAR_ACCELERATION  bicgstab
END linear

