# File generated by Flopy version 3.7.0 on 06/10/2024 at 09:13:55.
BEGIN options
  SAVE_FLOWS
END options

BEGIN packages
  DISV6  Reference.disv  disv
  OC6  Reference.oc  oc
  STO6  Reference.sto  sto
END packages

