# File generated by Flopy version 3.7.0 on 06/04/2024 at 14:34:01.
BEGIN options
END options

BEGIN dimensions
  MAXBOUND  7355
END dimensions

BEGIN period  1
  1 1 1.61318475E-08
  1 2 1.67413927E-08
  1 3 1.70274725E-08
  1 4 1.70961032E-08
  1 5 1.75103538E-08
  1 6 1.81626729E-08
  1 7 1.86479374E-08
  1 8 1.87396988E-08
  1 9 1.85596057E-08
  1 10 1.78791570E-08
  1 11 1.71819975E-08
  1 12 1.69124548E-08
  1 13 1.64430659E-08
  1 14 1.55801649E-08
  1 15 1.46717606E-08
  1 16 1.39931957E-08
  1 17 1.31814288E-08
  1 18 1.32453299E-08
  1 19 1.35280908E-08
  1 20 1.38959966E-08
  1 21 1.39668795E-08
  1 22 1.45810352E-08
  1 23 1.53296394E-08
  1 24 1.57438537E-08
  1 25 1.58409519E-08
  1 26 1.57327390E-08
  1 27 1.54690095E-08
  1 28 1.54972676E-08
  1 29 1.49676272E-08
  1 30 1.50160145E-08
  1 31 1.50821956E-08
  1 32 1.52594270E-08
  1 33 1.55965206E-08
  1 34 1.59863203E-08
  1 35 1.62184394E-08
  1 36 1.60273965E-08
  1 37 1.57944620E-08
  1 38 1.54444415E-08
  1 39 1.54612803E-08
  1 40 1.53930933E-08
  1 41 1.50620630E-08
  1 42 1.51873381E-08
  1 43 1.55962780E-08
  1 44 1.53148217E-08
  1 45 1.50378684E-08
  1 46 1.50556225E-08
  1 47 1.51640598E-08
  1 48 1.50354031E-08
  1 49 1.52070687E-08
  1 50 1.50303532E-08
  1 51 1.50127235E-08
  1 52 1.50522018E-08
  1 53 1.51134397E-08
  1 54 1.56140058E-08
  1 55 1.63911024E-08
  1 56 1.73295798E-08
  1 57 1.80741031E-08
  1 58 1.82919483E-08
  1 59 1.80823996E-08
  1 60 1.77268114E-08
  1 61 1.72553416E-08
  1 62 1.65244139E-08
  1 63 1.58357116E-08
  1 64 1.50060780E-08
  1 65 1.43549473E-08
  1 66 1.40450520E-08
  1 67 1.37017887E-08
  1 68 1.30405447E-08
  1 69 1.21888385E-08
  1 70 1.21205741E-08
  1 71 1.26763028E-08
  1 72 1.35775560E-08
  1 73 1.45644113E-08
  1 74 1.50504465E-08
  1 75 1.57411328E-08
  1 76 1.64877906E-08
  1 77 1.67808599E-08
  1 78 1.63359448E-08
  1 79 1.64290300E-08
  1 80 1.68550229E-08
  1 81 1.73034076E-08
  1 82 1.78255964E-08
  1 83 1.79656960E-08
  1 84 1.81411260E-08
  1 85 1.77432910E-08
  1 86 1.67552872E-08
  1 87 1.58035336E-08
  1 88 1.54484401E-08
  1 89 1.53366812E-08
  1 90 1.54802444E-08
  1 91 1.55197698E-08
  1 92 1.52917775E-08
  1 93 1.47562052E-08
  1 94 1.40705207E-08
  1 95 1.32090072E-08
  1 96 1.25099154E-08
  1 97 1.16517572E-08
  1 98 1.10123459E-08
  1 99 1.06139140E-08
  1 100 1.02415799E-08
  1 101 1.77751423E-08
  1 102 1.83179942E-08
  1 103 1.85499336E-08
  1 104 1.87109290E-08
  1 105 1.86425473E-08
  1 106 1.81033797E-08
  1 107 1.68494922E-08
  1 108 1.63829692E-08
  1 109 1.55304198E-08
  1 110 1.52249991E-08
  1 111 1.46262279E-08
  1 112 1.39912260E-08
  1 113 1.30575199E-08
  1 114 1.23047159E-08
  1 115 1.21452956E-08
  1 116 1.26193586E-08
  1 117 1.32018532E-08
  1 118 1.36923983E-08
  1 119 1.43711331E-08
  1 120 1.47822257E-08
  1 121 1.53120661E-08
  1 122 1.53082104E-08
  1 123 1.56705093E-08
  1 124 1.55974043E-08
  1 125 1.53268750E-08
  1 126 1.49714758E-08
  1 127 1.48385786E-08
  1 128 1.46381945E-08
  1 129 1.45869921E-08
  1 130 1.48328417E-08
  1 131 1.47597861E-08
  1 132 1.50701925E-08
  1 133 1.50254826E-08
  1 134 1.50999873E-08
  1 135 1.53729220E-08
  1 136 1.53680334E-08
  1 137 1.54154525E-08
  1 138 1.50880849E-08
  1 139 1.52892130E-08
  1 140 1.54174959E-08
  1 141 1.52596240E-08
  1 142 1.52906412E-08
  1 143 1.52828810E-08
  1 144 1.50917088E-08
  1 145 1.51018666E-08
  1 146 1.51242772E-08
  1 147 1.48466185E-08
  1 148 1.43695568E-08
  1 149 1.44739305E-08
  1 150 1.45745834E-08
  1 151 1.45607933E-08
  1 152 1.50555692E-08
  1 153 1.59349303E-08
  1 154 1.73000857E-08
  1 155 1.81520563E-08
  1 156 1.87063331E-08
  1 157 1.80222863E-08
  1 158 1.73363901E-08
  1 159 1.66494101E-08
  1 160 1.59659693E-08
  1 161 1.53598538E-08
  1 162 1.44528345E-08
  1 163 1.35577993E-08
  1 164 1.31674821E-08
  1 165 1.28148248E-08
  1 166 1.25629967E-08
  1 167 1.24585105E-08
  1 168 1.29124668E-08
  1 169 1.33816093E-08
  1 170 1.42599176E-08
  1 171 1.50443482E-08
  1 172 1.61905011E-08
  1 173 1.69446274E-08
  1 174 1.70063197E-08
  1 175 1.66525501E-08
  1 176 1.64737777E-08
  1 177 1.65502814E-08
  1 178 1.67501640E-08
  1 179 1.75818917E-08
  1 180 1.85212274E-08
  1 181 1.82141332E-08
  1 182 1.70695892E-08
  1 183 1.59408294E-08
  1 184 1.53387314E-08
  1 185 1.50553611E-08
  1 186 1.48532076E-08
  1 187 1.45197509E-08
  1 188 1.43390960E-08
  1 189 1.42684674E-08
  1 190 1.39794970E-08
  1 191 1.36082277E-08
  1 192 1.31229301E-08
  1 193 1.23618720E-08
  1 194 1.17768782E-08
  1 195 1.13016287E-08
  1 196 1.08137789E-08
  1 197 1.04895690E-08
  1 198 1.02034051E-08
  1 199 1.01458213E-08
  1 200 1.02400541E-08
  1 201 1.87251565E-08
  1 202 1.85234613E-08
  1 203 1.74705181E-08
  1 204 1.62741046E-08
  1 205 1.58700960E-08
  1 206 1.51925402E-08
  1 207 1.43349069E-08
  1 208 1.41041586E-08
  1 209 1.32155883E-08
  1 210 1.24123413E-08
  1 211 1.19442413E-08
  1 212 1.18832444E-08
  1 213 1.25360426E-08
  1 214 1.29706398E-08
  1 215 1.35360769E-08
  1 216 1.42683889E-08
  1 217 1.44619096E-08
  1 218 1.49889103E-08
  1 219 1.53492289E-08
  1 220 1.54430164E-08
  1 221 1.54585767E-08
  1 222 1.53327344E-08
  1 223 1.51832754E-08
  1 224 1.45737566E-08
  1 225 1.40584191E-08
  1 226 1.37799623E-08
  1 227 1.40204709E-08
  1 228 1.43207226E-08
  1 229 1.44290948E-08
  1 230 1.44259279E-08
  1 231 1.42318741E-08
  1 232 1.44417661E-08
  1 233 1.45485843E-08
  1 234 1.52090577E-08
  1 235 1.59783308E-08
  1 236 1.60952899E-08
  1 237 1.60870215E-08
  1 238 1.58145364E-08
  1 239 1.61015983E-08
  1 240 1.58658229E-08
  1 241 1.52198698E-08
  1 242 1.51020864E-08
  1 243 1.49191427E-08
  1 244 1.43826877E-08
  1 245 1.37596859E-08
  1 246 1.35554640E-08
  1 247 1.38993449E-08
  1 248 1.35950009E-08
  1 249 1.38560464E-08
  1 250 1.45697393E-08
  1 251 1.60153242E-08
  1 252 1.75597768E-08
  1 253 1.81947540E-08
  1 254 1.78358672E-08
  1 255 1.73659486E-08
  1 256 1.70327379E-08
  1 257 1.62518706E-08
  1 258 1.55100078E-08
  1 259 1.43571328E-08
  1 260 1.33499377E-08
  1 261 1.29186545E-08
  1 262 1.27621503E-08
  1 263 1.28781449E-08
  1 264 1.31097882E-08
  1 265 1.34322655E-08
  1 266 1.40060187E-08
  1 267 1.43724230E-08
  1 268 1.54108872E-08
  1 269 1.67073687E-08
  1 270 1.72548626E-08
  1 271 1.69639994E-08
  1 272 1.63880966E-08
  1 273 1.63155867E-08
  1 274 1.64966499E-08
  1 275 1.65460112E-08
  1 276 1.67620624E-08
  1 277 1.76940939E-08
  1 278 1.74905267E-08
  1 279 1.64836117E-08
  1 280 1.60024928E-08
  1 281 1.54491323E-08
  1 282 1.51447124E-08
  1 283 1.42809715E-08
  1 284 1.41290156E-08
  1 285 1.40452865E-08
  1 286 1.39365912E-08
  1 287 1.35432859E-08
  1 288 1.35233362E-08
  1 289 1.31434254E-08
  1 290 1.23710864E-08
  1 291 1.19605554E-08
  1 292 1.16054659E-08
  1 293 1.11587171E-08
  1 294 1.08048696E-08
  1 295 1.02340304E-08
  1 296 1.02478139E-08
  1 297 1.03879956E-08
  1 298 1.10332700E-08
  1 299 1.15347891E-08
  1 300 1.21322329E-08
  1 301 1.65414052E-08
  1 302 1.56439366E-08
  1 303 1.50118218E-08
  1 304 1.41717964E-08
  1 305 1.36988262E-08
  1 306 1.31165459E-08
  1 307 1.22161736E-08
  1 308 1.18471250E-08
  1 309 1.18396152E-08
  1 310 1.23375730E-08
  1 311 1.28804030E-08
  1 312 1.36003299E-08
  1 313 1.44921275E-08
  1 314 1.45577070E-08
  1 315 1.43227761E-08
  1 316 1.44276838E-08
  1 317 1.46420766E-08
  1 318 1.48518828E-08
  1 319 1.49456457E-08
  1 320 1.45891221E-08
  1 321 1.38937090E-08
  1 322 1.33473285E-08
  1 323 1.31312791E-08
  1 324 1.33334373E-08
  1 325 1.34415312E-08
  1 326 1.37354781E-08
  1 327 1.36500594E-08
  1 328 1.35738002E-08
  1 329 1.37126656E-08
  1 330 1.36220982E-08
  1 331 1.43125268E-08
  1 332 1.54483399E-08
  1 333 1.62498748E-08
  1 334 1.67299684E-08
  1 335 1.71961461E-08
  1 336 1.71620505E-08
  1 337 1.65741606E-08
  1 338 1.53181342E-08
  1 339 1.47247491E-08
  1 340 1.44340644E-08
  1 341 1.40424288E-08
  1 342 1.35542210E-08
  1 343 1.32146445E-08
  1 344 1.32519645E-08
  1 345 1.31919311E-08
  1 346 1.30879707E-08
  1 347 1.37787143E-08
  1 348 1.48587966E-08
  1 349 1.66715514E-08
  1 350 1.73569257E-08
  1 351 1.73208557E-08
  1 352 1.72731454E-08
  1 353 1.73397272E-08
  1 354 1.68224958E-08
  1 355 1.57460838E-08
  1 356 1.44686795E-08
  1 357 1.31739637E-08
  1 358 1.29060393E-08
  1 359 1.28629395E-08
  1 360 1.31580394E-08
  1 361 1.35998631E-08
  1 362 1.43075730E-08
  1 363 1.49220570E-08
  1 364 1.52717543E-08
  1 365 1.62232095E-08
  1 366 1.75802057E-08
  1 367 1.76489878E-08
  1 368 1.72013397E-08
  1 369 1.62762354E-08
  1 370 1.61685220E-08
  1 371 1.64254440E-08
  1 372 1.62111606E-08
  1 373 1.63666240E-08
  1 374 1.69534493E-08
  1 375 1.71070138E-08
  1 376 1.65878401E-08
  1 377 1.64474723E-08
  1 378 1.58722649E-08
  1 379 1.53960186E-08
  1 380 1.47375768E-08
  1 381 1.44284309E-08
  1 382 1.42825581E-08
  1 383 1.38937583E-08
  1 384 1.37310270E-08
  1 385 1.39509407E-08
  1 386 1.37492082E-08
  1 387 1.30199207E-08
  1 388 1.23314492E-08
  1 389 1.17979492E-08
  1 390 1.18761098E-08
  1 391 1.17272821E-08
  1 392 1.10490111E-08
  1 393 1.07484155E-08
  1 394 1.05211522E-08
  1 395 1.07851314E-08
  1 396 1.10527269E-08
  1 397 1.14965187E-08
  1 398 1.23035131E-08
  1 399 1.28039670E-08
  1 400 1.25223818E-08
  1 401 1.43112061E-08
  1 402 1.35936266E-08
  1 403 1.28627014E-08
  1 404 1.20928159E-08
  1 405 1.18107894E-08
  1 406 1.19787444E-08
  1 407 1.20258453E-08
  1 408 1.28440428E-08
  1 409 1.36733515E-08
  1 410 1.42520647E-08
  1 411 1.45121983E-08
  1 412 1.36584880E-08
  1 413 1.34781966E-08
  1 414 1.37918515E-08
  1 415 1.40004014E-08
  1 416 1.37171482E-08
  1 417 1.35729176E-08
  1 418 1.31891291E-08
  1 419 1.26143539E-08
  1 420 1.23847000E-08
  1 421 1.26766297E-08
  1 422 1.29550199E-08
  1 423 1.30029949E-08
  1 424 1.29911051E-08
  1 425 1.29002097E-08
  1 426 1.31653825E-08
  1 427 1.32491370E-08
  1 428 1.36723135E-08
  1 429 1.47525741E-08
  1 430 1.55584828E-08
  1 431 1.64291782E-08
  1 432 1.71220216E-08
  1 433 1.74998373E-08
  1 434 1.67546360E-08
  1 435 1.54787547E-08
  1 436 1.44877598E-08
  1 437 1.42913799E-08
  1 438 1.38368291E-08
  1 439 1.34125883E-08
  1 440 1.30700499E-08
  1 441 1.33811862E-08
  1 442 1.32553525E-08
  1 443 1.29954590E-08
  1 444 1.33882380E-08
  1 445 1.42732978E-08
  1 446 1.56719410E-08
  1 447 1.69037654E-08
  1 448 1.73308003E-08
  1 449 1.76736906E-08
  1 450 1.75366313E-08
  1 451 1.71384030E-08
  1 452 1.61090435E-08
  1 453 1.48899629E-08
  1 454 1.35687454E-08
  1 455 1.29917416E-08
  1 456 1.30889237E-08
  1 457 1.34838110E-08
  1 458 1.40577848E-08
  1 459 1.49533942E-08
  1 460 1.57112236E-08
  1 461 1.62390378E-08
  1 462 1.70709891E-08
  1 463 1.78371134E-08
  1 464 1.82350126E-08
  1 465 1.78945791E-08
  1 466 1.71501085E-08
  1 467 1.67097996E-08
  1 468 1.68195278E-08
  1 469 1.63414527E-08
  1 470 1.64503143E-08
  1 471 1.71894155E-08
  1 472 1.72387979E-08
  1 473 1.73992293E-08
  1 474 1.69602893E-08
  1 475 1.63438815E-08
  1 476 1.57723329E-08
  1 477 1.54629794E-08
  1 478 1.52180441E-08
  1 479 1.47284499E-08
  1 480 1.39625710E-08
  1 481 1.39820855E-08
  1 482 1.44246489E-08
  1 483 1.41949015E-08
  1 484 1.34688615E-08
  1 485 1.27656320E-08
  1 486 1.22523292E-08
  1 487 1.23700864E-08
  1 488 1.24782780E-08
  1 489 1.19792157E-08
  1 490 1.13100788E-08
  1 491 1.09363489E-08
  1 492 1.08672917E-08
  1 493 1.09574925E-08
  1 494 1.10947795E-08
  1 495 1.17123318E-08
  1 496 1.23159250E-08
  1 497 1.20212783E-08
  1 498 1.18072794E-08
  1 499 1.18748369E-08
  1 500 1.19560733E-08
  1 501 1.24380384E-08
  1 502 1.21967715E-08
  1 503 1.20420630E-08
  1 504 1.19906364E-08
  1 505 1.27601926E-08
  1 506 1.34681872E-08
  1 507 1.40472697E-08
  1 508 1.44475333E-08
  1 509 1.34278175E-08
  1 510 1.27003002E-08
  1 511 1.29929767E-08
  1 512 1.28034721E-08
  1 513 1.26176604E-08
  1 514 1.24803661E-08
  1 515 1.23469032E-08
  1 516 1.20379482E-08
  1 517 1.17585066E-08
  1 518 1.18807794E-08
  1 519 1.20333760E-08
  1 520 1.20642872E-08
  1 521 1.23483091E-08
  1 522 1.25611561E-08
  1 523 1.28346980E-08
  1 524 1.31495298E-08
  1 525 1.34955922E-08
  1 526 1.41320496E-08
  1 527 1.45434438E-08
  1 528 1.54448485E-08
  1 529 1.65038214E-08
  1 530 1.69201495E-08
  1 531 1.62196018E-08
  1 532 1.49434886E-08
  1 533 1.44024212E-08
  1 534 1.42815948E-08
  1 535 1.39252206E-08
  1 536 1.34554354E-08
  1 537 1.33008929E-08
  1 538 1.31959771E-08
  1 539 1.31607994E-08
  1 540 1.29202924E-08
  1 541 1.32434818E-08
  1 542 1.42785652E-08
  1 543 1.52462441E-08
  1 544 1.60172850E-08
  1 545 1.68799617E-08
  1 546 1.72522280E-08
  1 547 1.70203943E-08
  1 548 1.66998527E-08
  1 549 1.62471365E-08
  1 550 1.50457842E-08
  1 551 1.38361341E-08
  1 552 1.31355035E-08
  1 553 1.32537456E-08
  1 554 1.38709984E-08
  1 555 1.43657066E-08
  1 556 1.52242720E-08
  1 557 1.59316017E-08
  1 558 1.68716680E-08
  1 559 1.75114154E-08
  1 560 1.80741094E-08
  1 561 1.84462266E-08
  1 562 1.85606482E-08
  1 563 1.78578217E-08
  1 564 1.75070689E-08
  1 565 1.74586566E-08
  1 566 1.73834603E-08
  1 567 1.68684354E-08
  1 568 1.70725243E-08
  1 569 1.71955376E-08
  1 570 1.71577291E-08
  1 571 1.69442032E-08
  1 572 1.66416343E-08
  1 573 1.67148568E-08
  1 574 1.61439523E-08
  1 575 1.56501580E-08
  1 576 1.47605264E-08
  1 577 1.39972792E-08
  1 578 1.40461771E-08
  1 579 1.45733631E-08
  1 580 1.44860070E-08
  1 581 1.35734096E-08
  1 582 1.27930145E-08
  1 583 1.24108504E-08
  1 584 1.26877070E-08
  1 585 1.30800635E-08
  1 586 1.27930778E-08
  1 587 1.19119764E-08
  1 588 1.14917809E-08
  1 589 1.14722736E-08
  1 590 1.15445583E-08
  1 591 1.15616845E-08
  1 592 1.18792118E-08
  1 593 1.18859319E-08
  1 594 1.17584886E-08
  1 595 1.17049586E-08
  1 596 1.18102201E-08
  1 597 1.19117603E-08
  1 598 1.24586501E-08
  1 599 1.28922551E-08
  1 600 1.34988261E-08
  1 601 1.29954829E-08
  1 602 1.33033022E-08
  1 603 1.36253869E-08
  1 604 1.38599381E-08
  1 605 1.39861453E-08
  1 606 1.34018802E-08
  1 607 1.26695385E-08
  1 608 1.23583615E-08
  1 609 1.19575393E-08
  1 610 1.16254887E-08
  1 611 1.16768398E-08
  1 612 1.15484834E-08
  1 613 1.15612616E-08
  1 614 1.15278255E-08
  1 615 1.16411593E-08
  1 616 1.16555414E-08
  1 617 1.17913997E-08
  1 618 1.20840223E-08
  1 619 1.22681125E-08
  1 620 1.25035790E-08
  1 621 1.27288876E-08
  1 622 1.31466077E-08
  1 623 1.36062905E-08
  1 624 1.41012373E-08
  1 625 1.51339631E-08
  1 626 1.60357896E-08
  1 627 1.60001356E-08
  1 628 1.52934921E-08
  1 629 1.45345394E-08
  1 630 1.42237269E-08
  1 631 1.41105857E-08
  1 632 1.37074453E-08
  1 633 1.33190091E-08
  1 634 1.31360148E-08
  1 635 1.32579291E-08
  1 636 1.32271781E-08
  1 637 1.33009074E-08
  1 638 1.32803329E-08
  1 639 1.40190504E-08
  1 640 1.44839212E-08
  1 641 1.45842796E-08
  1 642 1.54080385E-08
  1 643 1.59949641E-08
  1 644 1.62963141E-08
  1 645 1.59644131E-08
  1 646 1.57607714E-08
  1 647 1.49098360E-08
  1 648 1.40061141E-08
  1 649 1.34487962E-08
  1 650 1.31395036E-08
  1 651 1.37056112E-08
  1 652 1.43117504E-08
  1 653 1.53486486E-08
  1 654 1.65320902E-08
  1 655 1.79558446E-08
  1 656 1.87072279E-08
  1 657 1.86430841E-08
  1 658 1.83665589E-08
  1 659 1.83166038E-08
  1 660 1.81714971E-08
  1 661 1.80125980E-08
  1 662 1.83969351E-08
  1 663 1.84754788E-08
  1 664 1.78043428E-08
  1 665 1.72970199E-08
  1 666 1.73839309E-08
  1 667 1.69116786E-08
  1 668 1.68767947E-08
  1 669 1.70762037E-08
  1 670 1.71167946E-08
  1 671 1.68042351E-08
  1 672 1.55724264E-08
  1 673 1.47938786E-08
  1 674 1.43762730E-08
  1 675 1.44694540E-08
  1 676 1.43039817E-08
  1 677 1.41364681E-08
  1 678 1.34551185E-08
  1 679 1.26699955E-08
  1 680 1.25742730E-08
  1 681 1.29156227E-08
  1 682 1.34098601E-08
  1 683 1.34465129E-08
  1 684 1.28440154E-08
  1 685 1.26312414E-08
  1 686 1.23826947E-08
  1 687 1.21685078E-08
  1 688 1.21726930E-08
  1 689 1.21154967E-08
  1 690 1.20559349E-08
  1 691 1.17266871E-08
  1 692 1.17106709E-08
  1 693 1.15467769E-08
  1 694 1.17816877E-08
  1 695 1.24615349E-08
  1 696 1.32542567E-08
  1 697 1.39844630E-08
  1 698 1.46871990E-08
  1 699 1.53177439E-08
  1 700 1.52161753E-08
  1 701 1.46123376E-08
  1 702 1.42666239E-08
  1 703 1.37079299E-08
  1 704 1.29041888E-08
  1 705 1.23202684E-08
  1 706 1.20972731E-08
  1 707 1.17026201E-08
  1 708 1.13164163E-08
  1 709 1.09697571E-08
  1 710 1.07922687E-08
  1 711 1.09699982E-08
  1 712 1.12555792E-08
  1 713 1.19506398E-08
  1 714 1.20582847E-08
  1 715 1.20888939E-08
  1 716 1.18458445E-08
  1 717 1.20363399E-08
  1 718 1.23525679E-08
  1 719 1.23219627E-08
  1 720 1.26746828E-08
  1 721 1.33463780E-08
  1 722 1.45524253E-08
  1 723 1.51980181E-08
  1 724 1.52014306E-08
  1 725 1.46600155E-08
  1 726 1.43724613E-08
  1 727 1.40959098E-08
  1 728 1.37247371E-08
  1 729 1.34535676E-08
  1 730 1.30666383E-08
  1 731 1.30562431E-08
  1 732 1.34983730E-08
  1 733 1.34038885E-08
  1 734 1.35185042E-08
  1 735 1.35787385E-08
  1 736 1.38637301E-08
  1 737 1.37578909E-08
  1 738 1.34592449E-08
  1 739 1.39847274E-08
  1 740 1.46320629E-08
  1 741 1.52237947E-08
  1 742 1.55389161E-08
  1 743 1.55482678E-08
  1 744 1.50191220E-08
  1 745 1.42829493E-08
  1 746 1.36505863E-08
  1 747 1.31563647E-08
  1 748 1.34681302E-08
  1 749 1.42149765E-08
  1 750 1.57045434E-08
  1 751 1.72533236E-08
  1 752 1.82463150E-08
  1 753 1.90716517E-08
  1 754 1.91892641E-08
  1 755 1.87994608E-08
  1 756 1.89359554E-08
  1 757 1.87743884E-08
  1 758 1.87490902E-08
  1 759 1.91087895E-08
  1 760 1.91444716E-08
  1 761 1.82825039E-08
  1 762 1.80623749E-08
  1 763 1.78065028E-08
  1 764 1.77606013E-08
  1 765 1.76941321E-08
  1 766 1.80724161E-08
  1 767 1.74368492E-08
  1 768 1.67047515E-08
  1 769 1.53261599E-08
  1 770 1.43246494E-08
  1 771 1.41902135E-08
  1 772 1.41045193E-08
  1 773 1.40853719E-08
  1 774 1.40269660E-08
  1 775 1.36451013E-08
  1 776 1.27122612E-08
  1 777 1.24617905E-08
  1 778 1.28050569E-08
  1 779 1.33962351E-08
  1 780 1.36788155E-08
  1 781 1.33374654E-08
  1 782 1.33715354E-08
  1 783 1.29568672E-08
  1 784 1.29375140E-08
  1 785 1.28818470E-08
  1 786 1.27097652E-08
  1 787 1.25746058E-08
  1 788 1.18732791E-08
  1 789 1.14932379E-08
  1 790 1.14967431E-08
  1 791 1.18247946E-08
  1 792 1.26354134E-08
  1 793 1.35101964E-08
  1 794 1.43986309E-08
  1 795 1.49375851E-08
  1 796 1.52331499E-08
  1 797 1.52140747E-08
  1 798 1.53972173E-08
  1 799 1.56730134E-08
  1 800 1.58956025E-08
  1 801 1.36647985E-08
  1 802 1.29412960E-08
  1 803 1.27432014E-08
  1 804 1.20509862E-08
  1 805 1.13704151E-08
  1 806 1.08849366E-08
  1 807 1.06505185E-08
  1 808 1.05379897E-08
  1 809 1.08507170E-08
  1 810 1.12292762E-08
  1 811 1.16774366E-08
  1 812 1.17420514E-08
  1 813 1.16294480E-08
  1 814 1.14544441E-08
  1 815 1.16094950E-08
  1 816 1.15845458E-08
  1 817 1.15940882E-08
  1 818 1.22432379E-08
  1 819 1.32507117E-08
  1 820 1.43916711E-08
  1 821 1.44281231E-08
  1 822 1.41294830E-08
  1 823 1.40499446E-08
  1 824 1.37263814E-08
  1 825 1.34944773E-08
  1 826 1.31718507E-08
  1 827 1.27598677E-08
  1 828 1.28950711E-08
  1 829 1.34996165E-08
  1 830 1.36489492E-08
  1 831 1.36764602E-08
  1 832 1.37559346E-08
  1 833 1.35985838E-08
  1 834 1.34652072E-08
  1 835 1.35250110E-08
  1 836 1.35782798E-08
  1 837 1.40212082E-08
  1 838 1.43405017E-08
  1 839 1.45801802E-08
  1 840 1.48397297E-08
  1 841 1.51510843E-08
  1 842 1.50381862E-08
  1 843 1.45550377E-08
  1 844 1.41694714E-08
  1 845 1.44353165E-08
  1 846 1.44881349E-08
  1 847 1.57072097E-08
  1 848 1.72162364E-08
  1 849 1.80640574E-08
  1 850 1.86161592E-08
  1 851 1.85368006E-08
  1 852 1.85887134E-08
  1 853 1.90991363E-08
  1 854 1.91185394E-08
  1 855 1.91648011E-08
  1 856 1.94406104E-08
  1 857 1.93463172E-08
  1 858 1.87720576E-08
  1 859 1.81688544E-08
  1 860 1.81068413E-08
  1 861 1.85528397E-08
  1 862 1.87594196E-08
  1 863 1.87742826E-08
  1 864 1.76974787E-08
  1 865 1.62546273E-08
  1 866 1.49874754E-08
  1 867 1.41833658E-08
  1 868 1.39154796E-08
  1 869 1.36106650E-08
  1 870 1.35201190E-08
  1 871 1.38564926E-08
  1 872 1.35223597E-08
  1 873 1.30276697E-08
  1 874 1.27341707E-08
  1 875 1.26620902E-08
  1 876 1.29511852E-08
  1 877 1.32606208E-08
  1 878 1.34016720E-08
  1 879 1.37317219E-08
  1 880 1.36348001E-08
  1 881 1.35605945E-08
  1 882 1.35477102E-08
  1 883 1.32069141E-08
  1 884 1.29924052E-08
  1 885 1.24023311E-08
  1 886 1.16728068E-08
  1 887 1.14504979E-08
  1 888 1.17131704E-08
  1 889 1.23559932E-08
  1 890 1.35404181E-08
  1 891 1.47041517E-08
  1 892 1.52995412E-08
  1 893 1.49169449E-08
  1 894 1.48343832E-08
  1 895 1.51710167E-08
  1 896 1.55351894E-08
  1 897 1.55298949E-08
  1 898 1.57050641E-08
  1 899 1.59331378E-08
  1 900 1.61964065E-08
  1 901 1.25927710E-08
  1 902 1.19466147E-08
  1 903 1.12799660E-08
  1 904 1.06160143E-08
  1 905 1.02629608E-08
  1 906 1.05596672E-08
  1 907 1.08100108E-08
  1 908 1.12388127E-08
  1 909 1.13499425E-08
  1 910 1.13124063E-08
  1 911 1.11903811E-08
  1 912 1.09714395E-08
  1 913 1.09836510E-08
  1 914 1.10338977E-08
  1 915 1.15825676E-08
  1 916 1.25452968E-08
  1 917 1.38527174E-08
  1 918 1.41642389E-08
  1 919 1.39743247E-08
  1 920 1.39927449E-08
  1 921 1.35543967E-08
  1 922 1.32928346E-08
  1 923 1.27989012E-08
  1 924 1.20569986E-08
  1 925 1.21133929E-08
  1 926 1.27799245E-08
  1 927 1.32231980E-08
  1 928 1.33281539E-08
  1 929 1.37020836E-08
  1 930 1.36433844E-08
  1 931 1.36160897E-08
  1 932 1.34789324E-08
  1 933 1.32329945E-08
  1 934 1.34974414E-08
  1 935 1.36674722E-08
  1 936 1.38868822E-08
  1 937 1.47102862E-08
  1 938 1.55872500E-08
  1 939 1.57034238E-08
  1 940 1.53047019E-08
  1 941 1.53183219E-08
  1 942 1.56737867E-08
  1 943 1.57258442E-08
  1 944 1.68773593E-08
  1 945 1.76973426E-08
  1 946 1.77328246E-08
  1 947 1.77108248E-08
  1 948 1.77807148E-08
  1 949 1.81511903E-08
  1 950 1.89439116E-08
  1 951 1.91426464E-08
  1 952 1.88476140E-08
  1 953 1.87118004E-08
  1 954 1.91307214E-08
  1 955 1.84790848E-08
  1 956 1.81938457E-08
  1 957 1.78173432E-08
  1 958 1.82066981E-08
  1 959 1.83214282E-08
  1 960 1.85099426E-08
  1 961 1.73673084E-08
  1 962 1.59892151E-08
  1 963 1.46758201E-08
  1 964 1.40887449E-08
  1 965 1.40775161E-08
  1 966 1.38029616E-08
  1 967 1.35869739E-08
  1 968 1.36075855E-08
  1 969 1.31706994E-08
  1 970 1.29844664E-08
  1 971 1.30410045E-08
  1 972 1.28932987E-08
  1 973 1.31347376E-08
  1 974 1.34398112E-08
  1 975 1.41134173E-08
  1 976 1.42245726E-08
  1 977 1.41116341E-08
  1 978 1.40924207E-08
  1 979 1.41100897E-08
  1 980 1.40853687E-08
  1 981 1.35738550E-08
  1 982 1.31857382E-08
  1 983 1.24475437E-08
  1 984 1.18592488E-08
  1 985 1.20123970E-08
  1 986 1.24993523E-08
  1 987 1.33532535E-08
  1 988 1.44995254E-08
  1 989 1.50327469E-08
  1 990 1.51447951E-08
  1 991 1.50035347E-08
  1 992 1.49928113E-08
  1 993 1.49845533E-08
  1 994 1.49099806E-08
  1 995 1.49102402E-08
  1 996 1.44843373E-08
  1 997 1.43977587E-08
  1 998 1.44023385E-08
  1 999 1.45475831E-08
  1 1000 1.42485923E-08
  1 1001 1.11565155E-08
  1 1002 1.06217990E-08
  1 1003 1.05341420E-08
  1 1004 1.07257877E-08
  1 1005 1.10723679E-08
  1 1006 1.14368688E-08
  1 1007 1.15555966E-08
  1 1008 1.14932094E-08
  1 1009 1.10634581E-08
  1 1010 1.08661043E-08
  1 1011 1.12698451E-08
  1 1012 1.17212421E-08
  1 1013 1.23466164E-08
  1 1014 1.33115858E-08
  1 1015 1.39156017E-08
  1 1016 1.40392094E-08
  1 1017 1.38646276E-08
  1 1018 1.33166457E-08
  1 1019 1.28215890E-08
  1 1020 1.22314087E-08
  1 1021 1.22314087E-08
  1 1022 1.22314087E-08
  1 1023 1.22314087E-08
  1 1024 1.14122457E-08
  1 1025 1.15116023E-08
  1 1026 1.20294727E-08
  1 1027 1.27256963E-08
  1 1028 1.32083293E-08
  1 1029 1.36302221E-08
  1 1030 1.38153520E-08
  1 1031 1.34723633E-08
  1 1032 1.34966190E-08
  1 1033 1.30348137E-08
  1 1034 1.31982472E-08
  1 1035 1.33037417E-08
  1 1036 1.35531364E-08
  1 1037 1.45725484E-08
  1 1038 1.54873719E-08
  1 1039 1.54564539E-08
  1 1040 1.56879348E-08
  1 1041 1.63719349E-08
  1 1042 1.64917491E-08
  1 1043 1.66414986E-08
  1 1044 1.77254473E-08
  1 1045 1.82602299E-08
  1 1046 1.78141574E-08
  1 1047 1.74742984E-08
  1 1048 1.75798496E-08
  1 1049 1.79517907E-08
  1 1050 1.88419369E-08
  1 1051 1.90974515E-08
  1 1052 1.89407292E-08
  1 1053 1.87884317E-08
  1 1054 1.88757090E-08
  1 1055 1.84632773E-08
  1 1056 1.76602572E-08
  1 1057 1.69097560E-08
  1 1058 1.70634862E-08
  1 1059 1.72397076E-08
  1 1060 1.71344354E-08
  1 1061 1.63153991E-08
  1 1062 1.51928882E-08
  1 1063 1.44949802E-08
  1 1064 1.44949802E-08
  1 1065 1.44949802E-08
  1 1066 1.44949802E-08
  1 1067 1.36905721E-08
  1 1068 1.41646491E-08
  1 1069 1.40341868E-08
  1 1070 1.35886547E-08
  1 1071 1.32895558E-08
  1 1072 1.29019173E-08
  1 1073 1.30299384E-08
  1 1074 1.32781905E-08
  1 1075 1.36635562E-08
  1 1076 1.39379776E-08
  1 1077 1.40607896E-08
  1 1078 1.44025810E-08
  1 1079 1.46777153E-08
  1 1080 1.46428840E-08
  1 1081 1.46897974E-08
  1 1082 1.48569503E-08
  1 1083 1.50138818E-08
  1 1084 1.46452146E-08
  1 1085 1.42331324E-08
  1 1086 1.36835362E-08
  1 1087 1.29733266E-08
  1 1088 1.25094821E-08
  1 1089 1.27876150E-08
  1 1090 1.35315389E-08
  1 1091 1.42559099E-08
  1 1092 1.46153183E-08
  1 1093 1.47681525E-08
  1 1094 1.47536321E-08
  1 1095 1.47680026E-08
  1 1096 1.45301214E-08
  1 1097 1.40183727E-08
  1 1098 1.41862060E-08
  1 1099 1.38673817E-08
  1 1100 1.31749403E-08
  1 1101 1.28248732E-08
  1 1102 1.28117371E-08
  1 1103 1.31685163E-08
  1 1104 1.37012702E-08
  1 1105 1.43736850E-08
  1 1106 1.45918239E-08
  1 1107 1.15422907E-08
  1 1108 1.18518194E-08
  1 1109 1.18874016E-08
  1 1110 1.18794267E-08
  1 1111 1.18741266E-08
  1 1112 1.18849516E-08
  1 1113 1.18341539E-08
  1 1114 1.20895725E-08
  1 1115 1.24171196E-08
  1 1116 1.25536322E-08
  1 1117 1.29911112E-08
  1 1118 1.35280207E-08
  1 1119 1.38234831E-08
  1 1120 1.36274240E-08
  1 1121 1.31044232E-08
  1 1122 1.27006481E-08
  1 1123 1.22167277E-08
  1 1124 1.15840440E-08
  1 1125 1.13371198E-08
  1 1126 1.13371198E-08
  1 1127 1.13371198E-08
  1 1128 1.13371198E-08
  1 1129 1.18822937E-08
  1 1130 1.18822937E-08
  1 1131 1.18822937E-08
  1 1132 1.18822937E-08
  1 1133 1.18822937E-08
  1 1134 1.18822937E-08
  1 1135 1.18822937E-08
  1 1136 1.18822937E-08
  1 1137 1.18822937E-08
  1 1138 1.18822937E-08
  1 1139 1.18822937E-08
  1 1140 1.18822937E-08
  1 1141 1.18822937E-08
  1 1142 1.18822937E-08
  1 1143 1.18822937E-08
  1 1144 1.18822937E-08
  1 1145 1.18822937E-08
  1 1146 1.18822937E-08
  1 1147 1.18822937E-08
  1 1148 1.18822937E-08
  1 1149 1.18822937E-08
  1 1150 1.18822937E-08
  1 1151 1.18822937E-08
  1 1152 1.18822937E-08
  1 1153 1.18822937E-08
  1 1154 1.18822937E-08
  1 1155 1.18822937E-08
  1 1156 1.18822937E-08
  1 1157 1.18822937E-08
  1 1158 1.18822937E-08
  1 1159 1.18822937E-08
  1 1160 1.18822937E-08
  1 1161 1.18822937E-08
  1 1162 1.18822937E-08
  1 1163 1.18822937E-08
  1 1164 1.18822937E-08
  1 1165 1.18822937E-08
  1 1166 1.18822937E-08
  1 1167 1.18822937E-08
  1 1168 1.18822937E-08
  1 1169 1.23321348E-08
  1 1170 1.23321348E-08
  1 1171 1.23321348E-08
  1 1172 1.23321348E-08
  1 1173 1.30660953E-08
  1 1174 1.33360395E-08
  1 1175 1.35512067E-08
  1 1176 1.33120419E-08
  1 1177 1.31806981E-08
  1 1178 1.29333123E-08
  1 1179 1.29013934E-08
  1 1180 1.29950558E-08
  1 1181 1.34161757E-08
  1 1182 1.40899849E-08
  1 1183 1.48688778E-08
  1 1184 1.51890426E-08
  1 1185 1.59399268E-08
  1 1186 1.65739200E-08
  1 1187 1.66730634E-08
  1 1188 1.71662003E-08
  1 1189 1.78097138E-08
  1 1190 1.81369827E-08
  1 1191 1.76851010E-08
  1 1192 1.75375353E-08
  1 1193 1.75225663E-08
  1 1194 1.80179596E-08
  1 1195 1.87348315E-08
  1 1196 1.91663167E-08
  1 1197 1.93498623E-08
  1 1198 1.92405987E-08
  1 1199 1.87174693E-08
  1 1200 1.78958112E-08
  1 1201 1.69788416E-08
  1 1202 1.60625831E-08
  1 1203 1.59559828E-08
  1 1204 1.61169902E-08
  1 1205 1.58327117E-08
  1 1206 1.53028473E-08
  1 1207 1.44065937E-08
  1 1208 1.36499935E-08
  1 1209 1.32353572E-08
  1 1210 1.35069275E-08
  1 1211 1.35069275E-08
  1 1212 1.35069275E-08
  1 1213 1.35069275E-08
  1 1214 1.38799676E-08
  1 1215 1.38799676E-08
  1 1216 1.38799676E-08
  1 1217 1.38799676E-08
  1 1218 1.38799676E-08
  1 1219 1.38799676E-08
  1 1220 1.38799676E-08
  1 1221 1.38799676E-08
  1 1222 1.38799676E-08
  1 1223 1.38799676E-08
  1 1224 1.38799676E-08
  1 1225 1.38799676E-08
  1 1226 1.38799676E-08
  1 1227 1.38799676E-08
  1 1228 1.38799676E-08
  1 1229 1.38799676E-08
  1 1230 1.38799676E-08
  1 1231 1.38799676E-08
  1 1232 1.38799676E-08
  1 1233 1.38799676E-08
  1 1234 1.38799676E-08
  1 1235 1.38799676E-08
  1 1236 1.38799676E-08
  1 1237 1.38799676E-08
  1 1238 1.38799676E-08
  1 1239 1.38799676E-08
  1 1240 1.38799676E-08
  1 1241 1.38799676E-08
  1 1242 1.38799676E-08
  1 1243 1.38799676E-08
  1 1244 1.38799676E-08
  1 1245 1.38799676E-08
  1 1246 1.38799676E-08
  1 1247 1.38799676E-08
  1 1248 1.38799676E-08
  1 1249 1.38799676E-08
  1 1250 1.38799676E-08
  1 1251 1.38799676E-08
  1 1252 1.38799676E-08
  1 1253 1.38799676E-08
  1 1254 1.35796842E-08
  1 1255 1.35796842E-08
  1 1256 1.35796842E-08
  1 1257 1.35796842E-08
  1 1258 1.34140330E-08
  1 1259 1.32338067E-08
  1 1260 1.33830186E-08
  1 1261 1.36442545E-08
  1 1262 1.41392138E-08
  1 1263 1.49444840E-08
  1 1264 1.51701605E-08
  1 1265 1.51862456E-08
  1 1266 1.51540821E-08
  1 1267 1.53086051E-08
  1 1268 1.49515730E-08
  1 1269 1.55628293E-08
  1 1270 1.58810679E-08
  1 1271 1.58407410E-08
  1 1272 1.50901925E-08
  1 1273 1.41760669E-08
  1 1274 1.32913209E-08
  1 1275 1.27063577E-08
  1 1276 1.28183042E-08
  1 1277 1.33539296E-08
  1 1278 1.37153483E-08
  1 1279 1.42396599E-08
  1 1280 1.43859388E-08
  1 1281 1.49186415E-08
  1 1282 1.50167299E-08
  1 1283 1.44911636E-08
  1 1284 1.37349370E-08
  1 1285 1.34706193E-08
  1 1286 1.34651542E-08
  1 1287 1.28183872E-08
  1 1288 1.21968523E-08
  1 1289 1.19132775E-08