# File generated by Flopy version 3.6.0 on 06/12/2024 at 16:02:50.
BEGIN options
END options

BEGIN dimensions
  MAXBOUND  7355
END dimensions

BEGIN period  1
  1 1 1.45400042E-08
  1 2 1.73292399E-08
  1 3 1.75767666E-08
  1 4 1.86180592E-08
  1 5 1.86879251E-08
  1 6 1.72340814E-08
  1 7 1.90673891E-08
  1 8 2.25985961E-08
  1 9 1.96407572E-08
  1 10 1.61990768E-08
  1 11 1.42869586E-08
  1 12 1.34068419E-08
  1 13 1.35353863E-08
  1 14 1.38638015E-08
  1 15 1.46756605E-08
  1 16 1.73957197E-08
  1 17 1.73620180E-08
  1 18 1.60025129E-08
  1 19 1.44394244E-08
  1 20 1.52212251E-08
  1 21 1.55999933E-08
  1 22 1.34783718E-08
  1 23 1.41040115E-08
  1 24 1.59168175E-08
  1 25 1.59946027E-08
  1 26 1.58187194E-08
  1 27 1.43113419E-08
  1 28 1.62611284E-08
  1 29 1.75297411E-08
  1 30 1.64999703E-08
  1 31 1.61914973E-08
  1 32 1.47380842E-08
  1 33 1.55660542E-08
  1 34 1.74034723E-08
  1 35 1.71043574E-08
  1 36 1.55691644E-08
  1 37 1.65293723E-08
  1 38 1.45821715E-08
  1 39 1.52049600E-08
  1 40 1.64683904E-08
  1 41 1.64924264E-08
  1 42 1.52410821E-08
  1 43 1.27769948E-08
  1 44 1.18699054E-08
  1 45 1.14043056E-08
  1 46 1.25581798E-08
  1 47 1.31035751E-08
  1 48 1.23409798E-08
  1 49 1.35386001E-08
  1 50 1.46451799E-08
  1 51 1.44810700E-08
  1 52 1.34182789E-08
  1 53 1.16850000E-08
  1 54 1.49677899E-08
  1 55 2.35566531E-08
  1 56 2.54710099E-08
  1 57 2.60040030E-08
  1 58 2.79488702E-08
  1 59 2.19923837E-08
  1 60 1.47697925E-08
  1 61 1.27991700E-08
  1 62 1.24453541E-08
  1 63 9.87780930E-09
  1 64 9.10849313E-09
  1 65 9.40962372E-09
  1 66 1.02068952E-08
  1 67 1.28626627E-08
  1 68 1.40400406E-08
  1 69 1.33619119E-08
  1 70 1.33279729E-08
  1 71 1.38349321E-08
  1 72 1.73092765E-08
  1 73 1.62553679E-08
  1 74 1.69329558E-08
  1 75 2.24426845E-08
  1 76 2.94342899E-08
  1 77 3.11967979E-08
  1 78 3.29402754E-08
  1 79 2.83537524E-08
  1 80 2.69200599E-08
  1 81 2.85862366E-08
  1 82 2.68676485E-08
  1 83 2.06456657E-08
  1 84 1.44875693E-08
  1 85 1.01267066E-08
  1 86 9.78623113E-09
  1 87 1.07552256E-08
  1 88 1.27758555E-08
  1 89 1.37877408E-08
  1 90 1.32563350E-08
  1 91 1.48243414E-08
  1 92 1.47062008E-08
  1 93 1.40910095E-08
  1 94 1.35535848E-08
  1 95 1.35934061E-08
  1 96 1.39905451E-08
  1 97 1.75181928E-08
  1 98 2.05492142E-08
  1 99 2.19710131E-08
  1 100 2.25465929E-08
  1 101 1.29960429E-08
  1 102 1.53401301E-08
  1 103 1.80893834E-08
  1 104 1.77340765E-08
  1 105 1.89932018E-08
  1 106 1.69222756E-08
  1 107 1.72105679E-08
  1 108 1.98000075E-08
  1 109 2.10445597E-08
  1 110 1.69999881E-08
  1 111 1.45397958E-08
  1 112 1.27497346E-08
  1 113 1.20777806E-08
  1 114 1.24062093E-08
  1 115 1.22683815E-08
  1 116 1.56690403E-08
  1 117 1.77002647E-08
  1 118 1.71722355E-08
  1 119 1.49091455E-08
  1 120 1.42866029E-08
  1 121 1.59284825E-08
  1 122 1.46333078E-08
  1 123 1.47032934E-08
  1 124 1.55551258E-08
  1 125 1.70568491E-08
  1 126 1.55726194E-08
  1 127 1.27479730E-08
  1 128 1.44592604E-08
  1 129 1.60161249E-08
  1 130 1.58651065E-08
  1 131 1.60955597E-08
  1 132 1.57734924E-08
  1 133 1.60613066E-08
  1 134 1.85683782E-08
  1 135 1.92792049E-08
  1 136 1.60897856E-08
  1 137 1.60449135E-08
  1 138 1.59104767E-08
  1 139 1.42510704E-08
  1 140 1.39989229E-08
  1 141 1.54725418E-08
  1 142 1.42574710E-08
  1 143 1.18142548E-08
  1 144 1.16456143E-08
  1 145 1.14742442E-08
  1 146 1.31323047E-08
  1 147 1.28220385E-08
  1 148 1.28023271E-08
  1 149 1.30165611E-08
  1 150 1.54765333E-08
  1 151 1.42962072E-08
  1 152 1.46623255E-08
  1 153 1.20710432E-08
  1 154 1.36570493E-08
  1 155 1.93492031E-08
  1 156 2.44838074E-08
  1 157 2.50469967E-08
  1 158 2.67183839E-08
  1 159 2.27403024E-08
  1 160 1.66715584E-08
  1 161 1.43995518E-08
  1 162 1.15858119E-08
  1 163 9.34821990E-09
  1 164 7.89398537E-09
  1 165 8.16461416E-09
  1 166 9.72871533E-09
  1 167 1.13399006E-08
  1 168 1.20367130E-08
  1 169 1.26918273E-08
  1 170 1.46187212E-08
  1 171 1.43977356E-08
  1 172 1.63008802E-08
  1 173 1.51052550E-08
  1 174 1.54888561E-08
  1 175 1.90513710E-08
  1 176 2.80091662E-08
  1 177 3.21618387E-08
  1 178 3.50912417E-08
  1 179 3.31636899E-08
  1 180 2.82620350E-08
  1 181 2.91827867E-08
  1 182 2.84417668E-08
  1 183 2.28683822E-08
  1 184 1.54124355E-08
  1 185 1.03654692E-08
  1 186 8.75262746E-09
  1 187 1.00947056E-08
  1 188 1.10701200E-08
  1 189 1.24760342E-08
  1 190 1.30395775E-08
  1 191 1.37380266E-08
  1 192 1.32998978E-08
  1 193 1.30501982E-08
  1 194 1.22281598E-08
  1 195 1.24972226E-08
  1 196 1.29576479E-08
  1 197 1.64675907E-08
  1 198 2.26429569E-08
  1 199 2.54117539E-08
  1 200 2.47567291E-08
  1 201 1.24707755E-08
  1 202 1.49436070E-08
  1 203 1.66639362E-08
  1 204 1.76418120E-08
  1 205 1.84976969E-08
  1 206 1.83622218E-08
  1 207 1.74776890E-08
  1 208 1.82888330E-08
  1 209 1.96477749E-08
  1 210 1.81748122E-08
  1 211 1.52727534E-08
  1 212 1.40226560E-08
  1 213 1.19728193E-08
  1 214 1.15998565E-08
  1 215 1.10784469E-08
  1 216 1.30779031E-08
  1 217 1.67382786E-08
  1 218 1.66122507E-08
  1 219 1.42549372E-08
  1 220 1.43251031E-08
  1 221 1.64094635E-08
  1 222 1.62421519E-08
  1 223 1.56826978E-08
  1 224 1.54414453E-08
  1 225 1.59063337E-08
  1 226 1.59132469E-08
  1 227 1.16620171E-08
  1 228 1.18146509E-08
  1 229 1.36675128E-08
  1 230 1.54254973E-08
  1 231 1.60098416E-08
  1 232 1.71505120E-08
  1 233 1.66817463E-08
  1 234 1.95458764E-08
  1 235 2.20878756E-08
  1 236 1.94554292E-08
  1 237 1.63498131E-08
  1 238 1.61276110E-08
  1 239 1.43718032E-08
  1 240 1.25875882E-08
  1 241 1.32718015E-08
  1 242 1.34441038E-08
  1 243 1.01830013E-08
  1 244 1.10629285E-08
  1 245 1.14458535E-08
  1 246 1.21987974E-08
  1 247 1.24342294E-08
  1 248 1.27272789E-08
  1 249 1.44637443E-08
  1 250 1.60340588E-08
  1 251 1.57656858E-08
  1 252 1.51302958E-08
  1 253 1.35426159E-08
  1 254 1.37222336E-08
  1 255 1.61119038E-08
  1 256 2.26581963E-08
  1 257 2.52520660E-08
  1 258 2.67610723E-08
  1 259 2.36623369E-08
  1 260 1.80753019E-08
  1 261 1.72184687E-08
  1 262 1.31331981E-08
  1 263 9.24635225E-09
  1 264 7.65690589E-09
  1 265 7.87829091E-09
  1 266 8.73617613E-09
  1 267 1.09635327E-08
  1 268 1.13407990E-08
  1 269 1.24503338E-08
  1 270 1.46564905E-08
  1 271 1.56954605E-08
  1 272 1.49178921E-08
  1 273 1.39801529E-08
  1 274 1.31047535E-08
  1 275 1.58976042E-08
  1 276 2.46910962E-08
  1 277 2.95305887E-08
  1 278 3.58106927E-08
  1 279 3.47327186E-08
  1 280 3.06191005E-08
  1 281 2.88469355E-08
  1 282 2.94152328E-08
  1 283 2.62573852E-08
  1 284 1.73950991E-08
  1 285 1.12451097E-08
  1 286 8.72644867E-09
  1 287 9.39387596E-09
  1 288 1.00928465E-08
  1 289 1.09838157E-08
  1 290 1.15235734E-08
  1 291 1.30288915E-08
  1 292 1.31379346E-08
  1 293 1.21625695E-08
  1 294 1.18438852E-08
  1 295 1.12869641E-08
  1 296 1.22539370E-08
  1 297 1.54096306E-08
  1 298 2.21631000E-08
  1 299 2.62061773E-08
  1 300 2.65468779E-08
  1 301 1.08972797E-08
  1 302 1.37658218E-08
  1 303 1.60709640E-08
  1 304 1.75555136E-08
  1 305 1.85542867E-08
  1 306 1.93792093E-08
  1 307 1.86343916E-08
  1 308 1.82254223E-08
  1 309 1.84203007E-08
  1 310 1.83046407E-08
  1 311 1.70477840E-08
  1 312 1.42552183E-08
  1 313 1.33005190E-08
  1 314 1.10414887E-08
  1 315 9.79121357E-09
  1 316 1.07269778E-08
  1 317 1.48622680E-08
  1 318 1.60102178E-08
  1 319 1.44380861E-08
  1 320 1.37096879E-08
  1 321 1.58567040E-08
  1 322 1.81462963E-08
  1 323 1.68834150E-08
  1 324 1.59276425E-08
  1 325 1.54678645E-08
  1 326 1.45708700E-08
  1 327 1.03746755E-08
  1 328 9.61472943E-09
  1 329 1.13774470E-08
  1 330 1.48200670E-08
  1 331 1.64521150E-08
  1 332 1.73262603E-08
  1 333 1.80545719E-08
  1 334 1.96579640E-08
  1 335 2.36991652E-08
  1 336 2.42209627E-08
  1 337 1.85022656E-08
  1 338 1.65782247E-08
  1 339 1.52146494E-08
  1 340 1.25496093E-08
  1 341 1.10763364E-08
  1 342 1.17455930E-08
  1 343 1.03514113E-08
  1 344 1.02141042E-08
  1 345 1.15506658E-08
  1 346 1.16593058E-08
  1 347 1.25223327E-08
  1 348 1.23589184E-08
  1 349 1.54722368E-08
  1 350 1.72060084E-08
  1 351 1.78694226E-08
  1 352 1.62900460E-08
  1 353 1.49054541E-08
  1 354 1.37393970E-08
  1 355 1.51545557E-08
  1 356 2.06276633E-08
  1 357 2.43893937E-08
  1 358 2.71118692E-08
  1 359 2.44422529E-08
  1 360 1.93708273E-08
  1 361 1.94735251E-08
  1 362 1.44212589E-08
  1 363 9.98056083E-09
  1 364 8.50117236E-09
  1 365 7.76710598E-09
  1 366 8.53804868E-09
  1 367 1.04161185E-08
  1 368 1.13480427E-08
  1 369 1.31336622E-08
  1 370 1.47991407E-08
  1 371 1.61260886E-08
  1 372 1.51443230E-08
  1 373 1.26615442E-08
  1 374 1.13346318E-08
  1 375 1.40448184E-08
  1 376 2.08367611E-08
  1 377 2.88541176E-08
  1 378 3.38236350E-08
  1 379 3.48863364E-08
  1 380 2.98973530E-08
  1 381 3.02599944E-08
  1 382 2.99566952E-08
  1 383 2.93771450E-08
  1 384 2.02714596E-08
  1 385 1.28856118E-08
  1 386 8.88602843E-09
  1 387 9.16077256E-09
  1 388 1.00759389E-08
  1 389 1.01665508E-08
  1 390 1.11444226E-08
  1 391 1.18882654E-08
  1 392 1.22984383E-08
  1 393 1.11747998E-08
  1 394 1.09715177E-08
  1 395 1.09697841E-08
  1 396 1.22289872E-08
  1 397 1.44249523E-08
  1 398 1.85449044E-08
  1 399 2.48807892E-08
  1 400 2.77950432E-08
  1 401 8.96350025E-09
  1 402 1.12831969E-08
  1 403 1.41346594E-08
  1 404 1.65355830E-08
  1 405 1.87197149E-08
  1 406 1.79285347E-08
  1 407 1.91760594E-08
  1 408 1.93074471E-08
  1 409 1.91450963E-08
  1 410 1.90278610E-08
  1 411 1.84037387E-08
  1 412 1.63543394E-08
  1 413 1.39406839E-08
  1 414 1.17680742E-08
  1 415 1.00916527E-08
  1 416 9.67914179E-09
  1 417 1.29827595E-08
  1 418 1.57523087E-08
  1 419 1.42989606E-08
  1 420 1.30847651E-08
  1 421 1.54298360E-08
  1 422 1.92341652E-08
  1 423 1.86802015E-08
  1 424 1.54891669E-08
  1 425 1.51562756E-08
  1 426 1.39804289E-08
  1 427 1.03386282E-08
  1 428 8.11240151E-09
  1 429 9.36999853E-09
  1 430 1.31941758E-08
  1 431 1.61273374E-08
  1 432 1.69946704E-08
  1 433 1.83879970E-08
  1 434 2.10676627E-08
  1 435 2.39642807E-08
  1 436 2.88711375E-08
  1 437 2.37303591E-08
  1 438 1.73839688E-08
  1 439 1.65855730E-08
  1 440 1.42321607E-08
  1 441 1.05518147E-08
  1 442 1.04287632E-08
  1 443 1.05299706E-08
  1 444 1.02504451E-08
  1 445 1.14305636E-08
  1 446 1.15119876E-08
  1 447 1.23177779E-08
  1 448 1.22842142E-08
  1 449 1.36934500E-08
  1 450 1.72190178E-08
  1 451 1.86091474E-08
  1 452 1.76327685E-08
  1 453 1.52430820E-08
  1 454 1.51668680E-08
  1 455 1.51070873E-08
  1 456 1.74574585E-08
  1 457 2.13160208E-08
  1 458 2.66630324E-08
  1 459 2.51878094E-08
  1 460 2.07588793E-08
  1 461 1.97704349E-08
  1 462 1.68260265E-08
  1 463 1.14978608E-08
  1 464 9.65000914E-09
  1 465 8.74789450E-09
  1 466 8.65139426E-09
  1 467 9.39250647E-09
  1 468 1.16822120E-08
  1 469 1.35482287E-08
  1 470 1.55321743E-08
  1 471 1.51968998E-08
  1 472 1.51379813E-08
  1 473 1.20402224E-08
  1 474 1.03911177E-08
  1 475 1.18438068E-08
  1 476 1.68546512E-08
  1 477 2.59423480E-08
  1 478 3.21112300E-08
  1 479 3.44008849E-08
  1 480 2.98495123E-08
  1 481 2.91568779E-08
  1 482 2.95760741E-08
  1 483 2.90540065E-08
  1 484 2.31870096E-08
  1 485 1.40128470E-08
  1 486 9.65318822E-09
  1 487 9.00170344E-09
  1 488 1.03676060E-08
  1 489 1.05330710E-08
  1 490 1.16608576E-08
  1 491 1.15830580E-08
  1 492 1.14250465E-08
  1 493 1.15061489E-08
  1 494 1.06621701E-08
  1 495 1.11087417E-08
  1 496 1.25979210E-08
  1 497 1.48615253E-08
  1 498 1.82150261E-08
  1 499 2.23343509E-08
  1 500 2.62624199E-08
  1 501 8.09677219E-09
  1 502 9.08440504E-09
  1 503 1.16126293E-08
  1 504 1.46966502E-08
  1 505 1.67945202E-08
  1 506 1.65889578E-08
  1 507 1.89358889E-08
  1 508 1.98267257E-08
  1 509 2.08905404E-08
  1 510 2.12049972E-08
  1 511 1.95796243E-08
  1 512 1.95790807E-08
  1 513 1.59117361E-08
  1 514 1.31303426E-08
  1 515 1.08984437E-08
  1 516 9.67533625E-09
  1 517 1.18729084E-08
  1 518 1.45730260E-08
  1 519 1.40334676E-08
  1 520 1.33184979E-08
  1 521 1.40086229E-08
  1 522 1.94184239E-08
  1 523 1.90877720E-08
  1 524 1.66325431E-08
  1 525 1.47169836E-08
  1 526 1.38437863E-08
  1 527 1.00379450E-08
  1 528 7.59117476E-09
  1 529 8.03096428E-09
  1 530 1.04075181E-08
  1 531 1.46148731E-08
  1 532 1.74253664E-08
  1 533 1.78319010E-08
  1 534 1.98699120E-08
  1 535 2.53825972E-08
  1 536 3.12580494E-08
  1 537 3.06680794E-08
  1 538 2.22552051E-08
  1 539 1.78441397E-08
  1 540 1.56659369E-08
  1 541 1.18288158E-08
  1 542 9.30105237E-09
  1 543 1.04266869E-08
  1 544 1.08994653E-08
  1 545 1.13216013E-08
  1 546 1.15911488E-08
  1 547 1.31436015E-08
  1 548 1.23669740E-08
  1 549 1.26601420E-08
  1 550 1.54235964E-08
  1 551 1.72966186E-08
  1 552 1.70227578E-08
  1 553 1.54114137E-08
  1 554 1.49894977E-08
  1 555 1.50824408E-08
  1 556 1.65027459E-08
  1 557 1.93297158E-08
  1 558 2.29199940E-08
  1 559 2.52864747E-08
  1 560 2.11034445E-08
  1 561 2.08404165E-08
  1 562 1.75332625E-08
  1 563 1.27111849E-08
  1 564 9.85461311E-09
  1 565 9.36858661E-09
  1 566 9.20629497E-09
  1 567 9.70148782E-09
  1 568 1.06923341E-08
  1 569 1.38639492E-08
  1 570 1.68857167E-08
  1 571 1.54137208E-08
  1 572 1.58162753E-08
  1 573 1.27568675E-08
  1 574 9.69184134E-09
  1 575 1.09886747E-08
  1 576 1.44622113E-08
  1 577 2.21796742E-08
  1 578 3.01907184E-08
  1 579 3.27579974E-08
  1 580 3.03126789E-08
  1 581 2.81951571E-08
  1 582 2.64773661E-08
  1 583 2.44424403E-08
  1 584 2.37527860E-08
  1 585 1.52646045E-08
  1 586 1.09396165E-08
  1 587 9.16394396E-09
  1 588 1.07680450E-08
  1 589 1.11719107E-08
  1 590 1.25199864E-08
  1 591 1.31350261E-08
  1 592 1.11883991E-08
  1 593 1.21501564E-08
  1 594 1.15790418E-08
  1 595 1.16558369E-08
  1 596 1.38128567E-08
  1 597 1.68326152E-08
  1 598 1.87815747E-08
  1 599 2.22478390E-08
  1 600 2.27486858E-08
  1 601 7.01541457E-09
  1 602 7.78458826E-09
  1 603 9.72623367E-09
  1 604 1.37029294E-08
  1 605 1.51631768E-08
  1 606 1.41359823E-08
  1 607 1.65321556E-08
  1 608 1.99302170E-08
  1 609 2.35630133E-08
  1 610 2.47775349E-08
  1 611 2.12040984E-08
  1 612 2.18612290E-08
  1 613 1.86388053E-08
  1 614 1.47619725E-08
  1 615 1.18863068E-08
  1 616 1.01732768E-08
  1 617 1.16028758E-08
  1 618 1.36898299E-08
  1 619 1.37497535E-08
  1 620 1.21993862E-08
  1 621 1.33393937E-08
  1 622 1.95445694E-08
  1 623 1.95951555E-08
  1 624 1.82646050E-08
  1 625 1.58780511E-08
  1 626 1.49542594E-08
  1 627 1.02867731E-08
  1 628 7.72873177E-09
  1 629 7.76216090E-09
  1 630 9.47797912E-09
  1 631 1.34829257E-08
  1 632 1.80569623E-08
  1 633 1.78154211E-08
  1 634 1.85673818E-08
  1 635 2.47416814E-08
  1 636 3.19052193E-08
  1 637 3.64370864E-08
  1 638 2.94934251E-08
  1 639 2.14715783E-08
  1 640 1.68027655E-08
  1 641 1.25688079E-08
  1 642 9.10657265E-09
  1 643 1.01286047E-08
  1 644 1.12688462E-08
  1 645 1.17925680E-08
  1 646 1.13923230E-08
  1 647 1.29563970E-08
  1 648 1.44215825E-08
  1 649 1.24821936E-08
  1 650 1.48441684E-08
  1 651 1.71075230E-08
  1 652 1.64007445E-08
  1 653 1.61921742E-08
  1 654 1.57540111E-08
  1 655 1.55531041E-08
  1 656 1.71965768E-08
  1 657 1.91284684E-08
  1 658 2.14216088E-08
  1 659 2.43708512E-08
  1 660 2.14159434E-08
  1 661 2.11829163E-08
  1 662 1.77648470E-08
  1 663 1.37294596E-08
  1 664 1.06752731E-08
  1 665 9.55512623E-09
  1 666 9.74747312E-09
  1 667 9.91990330E-09
  1 668 1.01968134E-08
  1 669 1.32640074E-08
  1 670 1.74590054E-08
  1 671 1.65092871E-08
  1 672 1.68289135E-08
  1 673 1.49006965E-08
  1 674 9.74912389E-09
  1 675 1.05301906E-08
  1 676 1.34284388E-08
  1 677 1.80852033E-08
  1 678 2.68999833E-08
  1 679 2.83060438E-08
  1 680 2.70934042E-08
  1 681 2.70159229E-08
  1 682 2.42120318E-08
  1 683 2.02375397E-08
  1 684 1.97611796E-08
  1 685 1.58742666E-08
  1 686 1.15470345E-08
  1 687 1.03760083E-08
  1 688 1.08449494E-08
  1 689 1.22130875E-08
  1 690 1.28868382E-08
  1 691 1.50707650E-08
  1 692 1.25771577E-08
  1 693 1.23034598E-08
  1 694 1.26297341E-08
  1 695 1.29669650E-08
  1 696 1.39925783E-08
  1 697 1.70071211E-08
  1 698 1.93160770E-08
  1 699 2.12661419E-08
  1 700 2.05664010E-08
  1 701 6.83561432E-09
  1 702 6.58628392E-09
  1 703 8.44223913E-09
  1 704 1.20935150E-08
  1 705 1.46520675E-08
  1 706 1.32872925E-08
  1 707 1.26936532E-08
  1 708 1.69959706E-08
  1 709 2.29924695E-08
  1 710 2.59368437E-08
  1 711 2.22813830E-08
  1 712 2.18337888E-08
  1 713 2.09468401E-08
  1 714 1.69259072E-08
  1 715 1.36104487E-08
  1 716 1.08908174E-08
  1 717 1.11915490E-08
  1 718 1.35052343E-08
  1 719 1.33145589E-08
  1 720 1.20860441E-08
  1 721 1.20304899E-08
  1 722 1.77553679E-08
  1 723 1.99126287E-08
  1 724 1.85985586E-08
  1 725 1.78138502E-08
  1 726 1.57275106E-08
  1 727 1.18508287E-08
  1 728 8.77348668E-09
  1 729 8.53787634E-09
  1 730 9.75079617E-09
  1 731 1.28022239E-08
  1 732 1.82459691E-08
  1 733 1.92474616E-08
  1 734 1.85697493E-08
  1 735 2.40735788E-08
  1 736 3.17217593E-08
  1 737 3.74035373E-08
  1 738 3.41486919E-08
  1 739 2.63163814E-08
  1 740 1.85168583E-08
  1 741 1.28764666E-08
  1 742 9.60013919E-09
  1 743 1.01621017E-08
  1 744 9.78387748E-09
  1 745 1.15790038E-08
  1 746 1.21104679E-08
  1 747 1.19789803E-08
  1 748 1.43800328E-08
  1 749 1.38019574E-08
  1 750 1.43245750E-08
  1 751 1.73542687E-08
  1 752 1.69249595E-08
  1 753 1.65606716E-08
  1 754 1.72775865E-08
  1 755 1.64415141E-08
  1 756 1.76173439E-08
  1 757 2.01201240E-08
  1 758 2.11779646E-08
  1 759 2.19338240E-08
  1 760 2.06770483E-08
  1 761 1.97669181E-08
  1 762 1.75992377E-08
  1 763 1.37238083E-08
  1 764 1.16251802E-08
  1 765 9.24997816E-09
  1 766 9.35570172E-09
  1 767 9.90894584E-09
  1 768 1.02683944E-08
  1 769 1.24657474E-08
  1 770 1.68059784E-08
  1 771 1.66398194E-08
  1 772 1.79083127E-08
  1 773 1.82479109E-08
  1 774 1.22643808E-08
  1 775 1.06492642E-08
  1 776 1.24555135E-08
  1 777 1.59196506E-08
  1 778 2.26497030E-08
  1 779 2.41025133E-08
  1 780 2.34658945E-08
  1 781 2.39666395E-08
  1 782 2.36109311E-08
  1 783 1.79104914E-08
  1 784 1.61929332E-08
  1 785 1.47566341E-08
  1 786 1.25192001E-08
  1 787 1.13016563E-08
  1 788 1.11218908E-08
  1 789 1.32344229E-08
  1 790 1.38331105E-08
  1 791 1.59257306E-08
  1 792 1.43751941E-08
  1 793 1.34874969E-08
  1 794 1.40191129E-08
  1 795 1.45486548E-08
  1 796 1.40570809E-08
  1 797 1.69395864E-08
  1 798 1.83359506E-08
  1 799 1.96510053E-08
  1 800 1.98129141E-08
  1 801 7.14269017E-09
  1 802 6.19667833E-09
  1 803 7.51618912E-09
  1 804 1.00700380E-08
  1 805 1.27158349E-08
  1 806 1.22756199E-08
  1 807 1.04553011E-08
  1 808 1.33673394E-08
  1 809 1.95516484E-08
  1 810 2.50322136E-08
  1 811 2.35624262E-08
  1 812 2.29043108E-08
  1 813 2.22986625E-08
  1 814 1.83858414E-08
  1 815 1.54742215E-08
  1 816 1.24024421E-08
  1 817 1.12113914E-08
  1 818 1.24834104E-08
  1 819 1.34177642E-08
  1 820 1.08611500E-08
  1 821 1.12575697E-08
  1 822 1.47499448E-08
  1 823 1.90738254E-08
  1 824 1.89214557E-08
  1 825 1.86123852E-08
  1 826 1.62321799E-08
  1 827 1.29693067E-08
  1 828 1.06494959E-08
  1 829 9.74759577E-09
  1 830 1.08089669E-08
  1 831 1.30358305E-08
  1 832 1.77692792E-08
  1 833 1.99879464E-08
  1 834 1.88506830E-08
  1 835 2.27988659E-08
  1 836 2.84115540E-08
  1 837 3.54746298E-08
  1 838 3.62734188E-08
  1 839 3.06884214E-08
  1 840 2.15398785E-08
  1 841 1.38251744E-08
  1 842 1.08202035E-08
  1 843 9.89024164E-09
  1 844 8.97179678E-09
  1 845 9.99557771E-09
  1 846 1.18247706E-08
  1 847 1.23476504E-08
  1 848 1.43770148E-08
  1 849 1.49257697E-08
  1 850 1.51512705E-08
  1 851 1.63666570E-08
  1 852 1.73115859E-08
  1 853 1.57794891E-08
  1 854 1.68738602E-08
  1 855 1.86770928E-08
  1 856 1.86698654E-08
  1 857 2.06904598E-08
  1 858 2.17347461E-08
  1 859 2.17551836E-08
  1 860 1.99595855E-08
  1 861 1.79497748E-08
  1 862 1.56114274E-08
  1 863 1.47746820E-08
  1 864 1.20874280E-08
  1 865 1.00859800E-08
  1 866 8.69116668E-09
  1 867 9.16344882E-09
  1 868 9.54178416E-09
  1 869 1.15213202E-08
  1 870 1.52773183E-08
  1 871 1.61944979E-08
  1 872 1.76354322E-08
  1 873 1.93955644E-08
  1 874 1.53608066E-08
  1 875 1.17698578E-08
  1 876 1.19128719E-08
  1 877 1.36827276E-08
  1 878 1.95674786E-08
  1 879 2.31577726E-08
  1 880 2.29162431E-08
  1 881 2.06078543E-08
  1 882 2.11284222E-08
  1 883 1.76846228E-08
  1 884 1.43822432E-08
  1 885 1.36303987E-08
  1 886 1.30893513E-08
  1 887 1.25669988E-08
  1 888 1.15175722E-08
  1 889 1.28618421E-08
  1 890 1.37148960E-08
  1 891 1.59432907E-08
  1 892 1.55927506E-08
  1 893 1.39302991E-08
  1 894 1.55510325E-08
  1 895 1.62658400E-08
  1 896 1.50573746E-08
  1 897 1.67815029E-08
  1 898 1.92467917E-08
  1 899 1.86814548E-08
  1 900 1.98719289E-08
  1 901 7.87894376E-09
  1 902 6.96342574E-09
  1 903 6.83600648E-09
  1 904 8.58529459E-09
  1 905 1.12022436E-08
  1 906 1.16194785E-08
  1 907 1.00600339E-08
  1 908 1.11762009E-08
  1 909 1.59303468E-08
  1 910 2.16378225E-08
  1 911 2.25777833E-08
  1 912 2.24723131E-08
  1 913 2.22304557E-08
  1 914 1.98198277E-08
  1 915 1.75702431E-08
  1 916 1.37223757E-08
  1 917 1.22411841E-08
  1 918 1.18864098E-08
  1 919 1.19537696E-08
  1 920 1.07091819E-08
  1 921 1.01010638E-08
  1 922 1.25066202E-08
  1 923 1.76748090E-08
  1 924 1.82551421E-08
  1 925 1.84517983E-08
  1 926 1.67427130E-08
  1 927 1.47033433E-08
  1 928 1.27109543E-08
  1 929 1.25407616E-08
  1 930 1.17095542E-08
  1 931 1.29269664E-08
  1 932 1.82541475E-08
  1 933 2.12843870E-08
  1 934 1.99119428E-08
  1 935 2.06370859E-08
  1 936 2.50233520E-08
  1 937 3.01388776E-08
  1 938 3.53111119E-08
  1 939 3.18423323E-08
  1 940 2.55574130E-08
  1 941 1.58237829E-08
  1 942 1.17634620E-08
  1 943 9.93253590E-09
  1 944 8.65356613E-09
  1 945 8.72084963E-09
  1 946 1.02098657E-08
  1 947 1.19968872E-08
  1 948 1.41520823E-08
  1 949 1.53276500E-08
  1 950 1.59611788E-08
  1 951 1.65958935E-08
  1 952 1.77605056E-08
  1 953 1.60765228E-08
  1 954 1.63043107E-08
  1 955 1.92531378E-08
  1 956 2.00495997E-08
  1 957 2.11203863E-08
  1 958 2.16309587E-08
  1 959 2.25433136E-08
  1 960 2.04160375E-08
  1 961 1.71091288E-08
  1 962 1.44353106E-08
  1 963 1.44684551E-08
  1 964 1.23212025E-08
  1 965 1.05614138E-08
  1 966 8.92720977E-09
  1 967 8.08959714E-09
  1 968 8.89807350E-09
  1 969 1.01007861E-08
  1 970 1.29675062E-08
  1 971 1.49812232E-08
  1 972 1.56576414E-08
  1 973 1.82064061E-08
  1 974 1.65878506E-08
  1 975 1.35208160E-08
  1 976 1.18674498E-08
  1 977 1.20537587E-08
  1 978 1.67768419E-08
  1 979 2.15565138E-08
  1 980 2.09176945E-08
  1 981 1.95589224E-08
  1 982 1.84661868E-08
  1 983 1.59132091E-08
  1 984 1.35465358E-08
  1 985 1.28920342E-08
  1 986 1.31340752E-08
  1 987 1.30256009E-08
  1 988 1.17178792E-08
  1 989 1.28666876E-08
  1 990 1.33544363E-08
  1 991 1.62689177E-08
  1 992 1.63683305E-08
  1 993 1.43538612E-08
  1 994 1.67901974E-08
  1 995 1.74075354E-08
  1 996 1.65762769E-08
  1 997 1.74371647E-08
  1 998 1.88858945E-08
  1 999 1.89579924E-08
  1 1000 2.07480060E-08
  1 1001 8.40531995E-09
  1 1002 7.70344031E-09
  1 1003 6.97302518E-09
  1 1004 7.62853793E-09
  1 1005 9.08803976E-09
  1 1006 1.05465998E-08
  1 1007 1.01437739E-08
  1 1008 1.09832687E-08
  1 1009 1.28602360E-08
  1 1010 1.85735941E-08
  1 1011 2.11931593E-08
  1 1012 2.11744290E-08
  1 1013 2.13585978E-08
  1 1014 2.11277706E-08
  1 1015 1.92376830E-08
  1 1016 1.62899278E-08
  1 1017 1.43212501E-08
  1 1018 1.23461961E-08
  1 1019 1.17614389E-08
  1 1020 1.01428215E-08
  1 1021 1.01428215E-08
  1 1022 1.01428215E-08
  1 1023 1.01428215E-08
  1 1024 9.23999787E-09
  1 1025 1.09552291E-08
  1 1026 1.49707497E-08
  1 1027 1.65132712E-08
  1 1028 1.80552813E-08
  1 1029 1.78713261E-08
  1 1030 1.70770812E-08
  1 1031 1.52262590E-08
  1 1032 1.53236479E-08
  1 1033 1.32204679E-08
  1 1034 1.28558266E-08
  1 1035 1.58036460E-08
  1 1036 2.21775053E-08
  1 1037 2.23477283E-08
  1 1038 2.12351564E-08
  1 1039 2.15479164E-08
  1 1040 2.58083130E-08
  1 1041 3.13367848E-08
  1 1042 3.02727622E-08
  1 1043 2.68632540E-08
  1 1044 1.86665803E-08
  1 1045 1.30319730E-08
  1 1046 1.01681300E-08
  1 1047 9.07731560E-09
  1 1048 8.47341986E-09
  1 1049 9.06444254E-09
  1 1050 1.08714495E-08
  1 1051 1.35680526E-08
  1 1052 1.59159064E-08
  1 1053 1.79120667E-08
  1 1054 1.68571210E-08
  1 1055 1.64603131E-08
  1 1056 1.60455385E-08
  1 1057 1.70061072E-08
  1 1058 1.80722822E-08
  1 1059 1.98347417E-08
  1 1060 2.06637723E-08
  1 1061 2.20806416E-08
  1 1062 2.43676654E-08
  1 1063 2.24213572E-08
  1 1064 2.24213572E-08
  1 1065 2.24213572E-08
  1 1066 2.24213572E-08
  1 1067 1.73575862E-08
  1 1068 1.55364948E-08
  1 1069 1.45829780E-08
  1 1070 1.27567552E-08
  1 1071 1.03651451E-08
  1 1072 9.25488683E-09
  1 1073 7.97607263E-09
  1 1074 7.40261982E-09
  1 1075 8.98619604E-09
  1 1076 1.24178021E-08
  1 1077 1.39794573E-08
  1 1078 1.42666917E-08
  1 1079 1.60926474E-08
  1 1080 1.67566295E-08
  1 1081 1.42091133E-08
  1 1082 1.15135143E-08
  1 1083 1.18940904E-08
  1 1084 1.40620966E-08
  1 1085 1.92393138E-08
  1 1086 1.84476889E-08
  1 1087 1.80749259E-08
  1 1088 1.76892032E-08
  1 1089 1.49838331E-08
  1 1090 1.26881104E-08
  1 1091 1.27815077E-08
  1 1092 1.24819556E-08
  1 1093 1.30330109E-08
  1 1094 1.25778791E-08
  1 1095 1.29772669E-08
  1 1096 1.38396567E-08
  1 1097 1.60535951E-08
  1 1098 1.69161988E-08
  1 1099 1.48052242E-08
  1 1100 1.75473025E-08
  1 1101 1.95182277E-08
  1 1102 1.77399991E-08
  1 1103 1.72304993E-08
  1 1104 1.78471499E-08
  1 1105 2.02730341E-08
  1 1106 2.34008539E-08
  1 1107 9.88550607E-09
  1 1108 8.32632152E-09
  1 1109 7.34226855E-09
  1 1110 7.40129518E-09
  1 1111 8.01824683E-09
  1 1112 8.48574323E-09
  1 1113 9.28651692E-09
  1 1114 1.04919335E-08
  1 1115 1.10992200E-08
  1 1116 1.72463166E-08
  1 1117 2.07872609E-08
  1 1118 2.01579158E-08
  1 1119 2.08237841E-08
  1 1120 2.12411757E-08
  1 1121 2.16355497E-08
  1 1122 1.94317201E-08
  1 1123 1.71235366E-08
  1 1124 1.38110524E-08
  1 1125 1.25243475E-08
  1 1126 1.25243475E-08
  1 1127 1.25243475E-08
  1 1128 1.25243475E-08
  1 1129 9.92758565E-09
  1 1130 9.92758565E-09
  1 1131 9.92758565E-09
  1 1132 9.92758565E-09
  1 1133 9.92758565E-09
  1 1134 9.92758565E-09
  1 1135 9.92758565E-09
  1 1136 9.92758565E-09
  1 1137 9.92758565E-09
  1 1138 9.92758565E-09
  1 1139 9.92758565E-09
  1 1140 9.92758565E-09
  1 1141 9.92758565E-09
  1 1142 9.92758565E-09
  1 1143 9.92758565E-09
  1 1144 9.92758565E-09
  1 1145 9.92758565E-09
  1 1146 9.92758565E-09
  1 1147 9.92758565E-09
  1 1148 9.92758565E-09
  1 1149 9.92758565E-09
  1 1150 9.92758565E-09
  1 1151 9.92758565E-09
  1 1152 9.92758565E-09
  1 1153 9.92758565E-09
  1 1154 9.92758565E-09
  1 1155 9.92758565E-09
  1 1156 9.92758565E-09
  1 1157 9.92758565E-09
  1 1158 9.92758565E-09
  1 1159 9.92758565E-09
  1 1160 9.92758565E-09
  1 1161 9.92758565E-09
  1 1162 9.92758565E-09
  1 1163 9.92758565E-09
  1 1164 9.92758565E-09
  1 1165 9.92758565E-09
  1 1166 9.92758565E-09
  1 1167 9.92758565E-09
  1 1168 9.92758565E-09
  1 1169 9.27269974E-09
  1 1170 9.27269974E-09
  1 1171 9.27269974E-09
  1 1172 9.27269974E-09
  1 1173 1.00166233E-08
  1 1174 1.27020689E-08
  1 1175 1.44507111E-08
  1 1176 1.65893253E-08
  1 1177 1.88274769E-08
  1 1178 1.95014024E-08
  1 1179 1.91684333E-08
  1 1180 1.71186750E-08
  1 1181 1.56931469E-08
  1 1182 1.27853036E-08
  1 1183 1.38929850E-08
  1 1184 1.96295550E-08
  1 1185 2.40922763E-08
  1 1186 2.07567643E-08
  1 1187 2.03881134E-08
  1 1188 2.28482608E-08
  1 1189 2.76889546E-08
  1 1190 2.75172153E-08
  1 1191 2.58981746E-08
  1 1192 1.98955740E-08
  1 1193 1.47699871E-08
  1 1194 1.17783827E-08
  1 1195 9.27149585E-09
  1 1196 8.64194869E-09
  1 1197 8.45050136E-09
  1 1198 9.76088722E-09
  1 1199 1.31946682E-08
  1 1200 1.71666627E-08
  1 1201 1.95881776E-08
  1 1202 1.79960864E-08
  1 1203 1.63050937E-08
  1 1204 1.64333473E-08
  1 1205 1.65318885E-08
  1 1206 1.69808485E-08
  1 1207 1.89086842E-08
  1 1208 2.10388900E-08
  1 1209 2.13707358E-08
  1 1210 2.53444444E-08
  1 1211 2.53444444E-08
  1 1212 2.53444444E-08
  1 1213 2.53444444E-08
  1 1214 2.47356379E-08
  1 1215 2.47356379E-08
  1 1216 2.47356379E-08
  1 1217 2.47356379E-08
  1 1218 2.47356379E-08
  1 1219 2.47356379E-08
  1 1220 2.47356379E-08
  1 1221 2.47356379E-08
  1 1222 2.47356379E-08
  1 1223 2.47356379E-08
  1 1224 2.47356379E-08
  1 1225 2.47356379E-08
  1 1226 2.47356379E-08
  1 1227 2.47356379E-08
  1 1228 2.47356379E-08
  1 1229 2.47356379E-08
  1 1230 2.47356379E-08
  1 1231 2.47356379E-08
  1 1232 2.47356379E-08
  1 1233 2.47356379E-08
  1 1234 2.47356379E-08
  1 1235 2.47356379E-08
  1 1236 2.47356379E-08
  1 1237 2.47356379E-08
  1 1238 2.47356379E-08
  1 1239 2.47356379E-08
  1 1240 2.47356379E-08
  1 1241 2.47356379E-08
  1 1242 2.47356379E-08
  1 1243 2.47356379E-08
  1 1244 2.47356379E-08
  1 1245 2.47356379E-08
  1 1246 2.47356379E-08
  1 1247 2.47356379E-08
  1 1248 2.47356379E-08
  1 1249 2.47356379E-08
  1 1250 2.47356379E-08
  1 1251 2.47356379E-08
  1 1252 2.47356379E-08
  1 1253 2.47356379E-08
  1 1254 2.00877264E-08
  1 1255 2.00877264E-08
  1 1256 2.00877264E-08
  1 1257 2.00877264E-08
  1 1258 1.74399787E-08
  1 1259 1.65837970E-08
  1 1260 1.42050880E-08
  1 1261 1.04764792E-08
  1 1262 9.54409483E-09
  1 1263 8.45547042E-09
  1 1264 7.12710477E-09
  1 1265 8.22151683E-09
  1 1266 1.11327301E-08
  1 1267 1.46341157E-08
  1 1268 1.38942852E-08
  1 1269 1.57930292E-08
  1 1270 1.68113549E-08
  1 1271 1.46209340E-08
  1 1272 1.23078706E-08
  1 1273 1.29533734E-08
  1 1274 1.30956766E-08
  1 1275 1.59998609E-08
  1 1276 1.73935280E-08
  1 1277 1.67717647E-08
  1 1278 1.64753070E-08
  1 1279 1.37797712E-08
  1 1280 1.17562047E-08
  1 1281 1.25670268E-08
  1 1282 1.24608552E-08
  1 1283 1.25449364E-08
  1 1284 1.25466029E-08
  1 1285 1.31666794E-08
  1 1286 1.37254254E-08
  1 1287 1.58867237E-08
  1 1288 1.72218022E-08
  1 1289 1.54639180E-08