# File generated by Flopy version 3.6.0 on 09/25/2024 at 13:42:29.
BEGIN options
END options

BEGIN dimensions
  MAXBOUND  5000
END dimensions

BEGIN period  1
  1 1 5.41307879E-09
  1 2 5.36096274E-09
  1 3 5.21357656E-09
  1 4 4.90562081E-09
  1 5 4.82209219E-09
  1 6 4.69307064E-09
  1 7 4.57601214E-09
  1 8 4.42229853E-09
  1 9 4.33809655E-09
  1 10 4.23950789E-09
  1 11 4.13313460E-09
  1 12 4.06784158E-09
  1 13 4.03611370E-09
  1 14 4.16720649E-09
  1 15 4.13210875E-09
  1 16 4.17614307E-09
  1 17 4.21636514E-09
  1 18 4.21054964E-09
  1 19 4.30813056E-09
  1 20 4.27750811E-09
  1 21 4.26726501E-09
  1 22 4.27512405E-09
  1 23 4.29899424E-09
  1 24 4.29257696E-09
  1 25 4.27665467E-09
  1 26 4.32207351E-09
  1 27 4.45219944E-09
  1 28 4.48943529E-09
  1 29 4.46160493E-09
  1 30 4.49345962E-09
  1 31 4.47969153E-09
  1 32 4.50684474E-09
  1 33 4.56360831E-09
  1 34 4.51174935E-09
  1 35 4.58481877E-09
  1 36 4.61944861E-09
  1 37 4.67965701E-09
  1 38 4.72509657E-09
  1 39 4.74281155E-09
  1 40 4.75276207E-09
  1 41 4.81467161E-09
  1 42 4.75078642E-09
  1 43 4.80793057E-09
  1 44 4.93005370E-09
  1 45 4.80705177E-09
  1 46 4.90896322E-09
  1 47 4.80613270E-09
  1 48 4.84457690E-09
  1 49 4.83611573E-09
  1 50 4.91691070E-09
  1 51 5.01753016E-09
  1 52 5.08660878E-09
  1 53 5.27019207E-09
  1 54 5.24468563E-09
  1 55 5.23200891E-09
  1 56 5.17861735E-09
  1 57 5.06094374E-09
  1 58 5.14452420E-09
  1 59 5.11599893E-09
  1 60 5.14981102E-09
  1 61 5.29782803E-09
  1 62 5.20565253E-09
  1 63 5.35817171E-09
  1 64 5.28948062E-09
  1 65 5.32966536E-09
  1 66 5.39735875E-09
  1 67 5.39518200E-09
  1 68 5.57296320E-09
  1 69 5.62865498E-09
  1 70 5.62672606E-09
  1 71 5.73826171E-09
  1 72 5.81178495E-09
  1 73 5.76108848E-09
  1 74 5.86575850E-09
  1 75 6.04030008E-09
  1 76 5.96777699E-09
  1 77 6.04190587E-09
  1 78 6.04813020E-09
  1 79 6.05859807E-09
  1 80 5.98816939E-09
  1 81 6.09910842E-09
  1 82 6.07148833E-09
  1 83 6.03934622E-09
  1 84 6.09335509E-09
  1 85 5.93427712E-09
  1 86 5.93970859E-09
  1 87 5.85324121E-09
  1 88 5.91991831E-09
  1 89 5.91247205E-09
  1 90 5.78954440E-09
  1 91 6.00624795E-09
  1 92 6.14322503E-09
  1 93 6.15442947E-09
  1 94 6.16888416E-09
  1 95 6.19574442E-09
  1 96 6.19578357E-09
  1 97 6.24376783E-09
  1 98 6.33165362E-09
  1 99 6.29183367E-09
  1 100 6.40736408E-09
  1 101 5.11082810E-09
  1 102 5.07285593E-09
  1 103 4.94243383E-09
  1 104 4.63645622E-09
  1 105 4.55254540E-09
  1 106 4.43324709E-09
  1 107 4.35755054E-09
  1 108 4.23636330E-09
  1 109 4.18561381E-09
  1 110 4.10530937E-09
  1 111 4.02801023E-09
  1 112 4.00026410E-09
  1 113 4.00810812E-09
  1 114 4.16855623E-09
  1 115 4.12105741E-09
  1 116 4.18987216E-09
  1 117 4.23593127E-09
  1 118 4.21894745E-09
  1 119 4.30756561E-09
  1 120 4.28784242E-09
  1 121 4.33628152E-09
  1 122 4.38716360E-09
  1 123 4.42772215E-09
  1 124 4.41320274E-09
  1 125 4.41699220E-09
  1 126 4.51461256E-09
  1 127 4.67747901E-09
  1 128 4.70584000E-09
  1 129 4.68156994E-09
  1 130 4.73230357E-09
  1 131 4.69902777E-09
  1 132 4.71722138E-09
  1 133 4.81459557E-09
  1 134 4.76483984E-09
  1 135 4.81223590E-09
  1 136 4.82758819E-09
  1 137 4.88147760E-09
  1 138 4.95239413E-09
  1 139 4.93398541E-09
  1 140 4.93443124E-09
  1 141 5.02615972E-09
  1 142 4.97716705E-09
  1 143 5.01935246E-09
  1 144 5.08254812E-09
  1 145 4.91884175E-09
  1 146 5.07332208E-09
  1 147 5.02660464E-09
  1 148 5.13536728E-09
  1 149 5.14547452E-09
  1 150 5.20236142E-09
  1 151 5.22719193E-09
  1 152 5.19775824E-09
  1 153 5.34999006E-09
  1 154 5.28091383E-09
  1 155 5.17675569E-09
  1 156 5.10839937E-09
  1 157 4.97506645E-09
  1 158 5.01719252E-09
  1 159 5.01540797E-09
  1 160 5.12175861E-09
  1 161 5.24401001E-09
  1 162 5.12036068E-09
  1 163 5.29264802E-09
  1 164 5.26094812E-09
  1 165 5.37568440E-09
  1 166 5.49180000E-09
  1 167 5.51346494E-09
  1 168 5.72162148E-09
  1 169 5.78460768E-09
  1 170 5.76026678E-09
  1 171 5.90469172E-09
  1 172 5.98998713E-09
  1 173 5.95986153E-09
  1 174 6.04258246E-09
  1 175 6.14093157E-09
  1 176 6.06691017E-09
  1 177 6.13447735E-09
  1 178 6.13433612E-09
  1 179 6.17433909E-09
  1 180 6.05907911E-09
  1 181 6.12498989E-09
  1 182 6.07763312E-09
  1 183 6.02262542E-09
  1 184 6.03174400E-09
  1 185 5.87894780E-09
  1 186 5.88362665E-09
  1 187 5.79735738E-09
  1 188 5.89471630E-09
  1 189 5.92996279E-09
  1 190 5.86551691E-09
  1 191 6.12481547E-09
  1 192 6.28111220E-09
  1 193 6.29963172E-09
  1 194 6.27157860E-09
  1 195 6.30215731E-09
  1 196 6.33436358E-09
  1 197 6.42116790E-09
  1 198 6.47511173E-09
  1 199 6.42914541E-09
  1 200 6.47698233E-09
  1 201 4.81599722E-09
  1 202 4.75387089E-09
  1 203 4.61025183E-09
  1 204 4.34143245E-09
  1 205 4.29378734E-09
  1 206 4.24929851E-09
  1 207 4.24734238E-09
  1 208 4.17855401E-09
  1 209 4.16596115E-09
  1 210 4.13696066E-09
  1 211 4.08620527E-09
  1 212 4.07381806E-09
  1 213 4.09395288E-09
  1 214 4.25108561E-09
  1 215 4.24278992E-09
  1 216 4.30942419E-09
  1 217 4.31731011E-09
  1 218 4.33067290E-09
  1 219 4.43531849E-09
  1 220 4.44161410E-09
  1 221 4.46948869E-09
  1 222 4.51868212E-09
  1 223 4.60989353E-09
  1 224 4.69931246E-09
  1 225 4.77700741E-09
  1 226 4.85134342E-09
  1 227 4.94687498E-09
  1 228 4.93816604E-09
  1 229 4.92772642E-09
  1 230 4.99861983E-09
  1 231 4.94325447E-09
  1 232 4.96044852E-09
  1 233 5.05698182E-09
  1 234 5.02831852E-09
  1 235 5.11972207E-09
  1 236 5.15783280E-09
  1 237 5.18047454E-09
  1 238 5.15721291E-09
  1 239 5.12397933E-09
  1 240 5.16394597E-09
  1 241 5.25142164E-09
  1 242 5.20565568E-09
  1 243 5.26467677E-09
  1 244 5.37494620E-09
  1 245 5.25147198E-09
  1 246 5.43629765E-09
  1 247 5.38729742E-09
  1 248 5.45587741E-09
  1 249 5.40038382E-09
  1 250 5.36484029E-09
  1 251 5.32002012E-09
  1 252 5.24799671E-09
  1 253 5.32121984E-09
  1 254 5.19032857E-09
  1 255 5.11484533E-09
  1 256 5.05780797E-09
  1 257 4.94867326E-09
  1 258 5.01974466E-09
  1 259 5.03378889E-09
  1 260 5.12880672E-09
  1 261 5.29786946E-09
  1 262 5.24330511E-09
  1 263 5.46261962E-09
  1 264 5.44300764E-09
  1 265 5.53365083E-09
  1 266 5.66326732E-09
  1 267 5.67268792E-09
  1 268 5.91019203E-09
  1 269 6.00478426E-09
  1 270 6.04304621E-09
  1 271 6.21700950E-09
  1 272 6.23232101E-09
  1 273 6.14128962E-09
  1 274 6.23596315E-09
  1 275 6.32799230E-09
  1 276 6.20827715E-09
  1 277 6.27911183E-09
  1 278 6.26814050E-09
  1 279 6.27445006E-09
  1 280 6.15956461E-09
  1 281 6.19883467E-09
  1 282 6.10681768E-09
  1 283 6.04553396E-09
  1 284 6.04640461E-09
  1 285 5.87725384E-09
  1 286 5.94908656E-09
  1 287 5.93733667E-09
  1 288 6.11198636E-09
  1 289 6.14888563E-09
  1 290 6.05752787E-09
  1 291 6.30269500E-09
  1 292 6.45743051E-09
  1 293 6.56115023E-09
  1 294 6.48947040E-09
  1 295 6.43619186E-09
  1 296 6.41729518E-09
  1 297 6.38377250E-09
  1 298 6.36727406E-09
  1 299 6.28005311E-09
  1 300 6.29908071E-09
  1 301 4.55988823E-09
  1 302 4.47928884E-09
  1 303 4.37532363E-09
  1 304 4.21773849E-09
  1 305 4.28681328E-09
  1 306 4.29715072E-09
  1 307 4.34299094E-09
  1 308 4.29599440E-09
  1 309 4.34690421E-09
  1 310 4.33733009E-09
  1 311 4.28632295E-09
  1 312 4.25399568E-09
  1 313 4.27484124E-09
  1 314 4.43272885E-09
  1 315 4.42426763E-09
  1 316 4.50127775E-09
  1 317 4.54143406E-09
  1 318 4.52967369E-09
  1 319 4.63714612E-09
  1 320 4.65787681E-09
  1 321 4.72330152E-09
  1 322 4.85039407E-09
  1 323 4.98043883E-09
  1 324 5.00338002E-09
  1 325 4.98757095E-09
  1 326 4.96413402E-09
  1 327 5.10832730E-09
  1 328 5.17252877E-09
  1 329 5.20249752E-09
  1 330 5.28001256E-09
  1 331 5.24984705E-09
  1 332 5.30945027E-09
  1 333 5.38729536E-09
  1 334 5.35942068E-09
  1 335 5.44878468E-09
  1 336 5.47039574E-09
  1 337 5.46088354E-09
  1 338 5.42542417E-09
  1 339 5.39561609E-09
  1 340 5.41282879E-09
  1 341 5.51520982E-09
  1 342 5.44555039E-09
  1 343 5.55197004E-09
  1 344 5.73861497E-09
  1 345 5.57621287E-09
  1 346 5.72914313E-09
  1 347 5.61697227E-09
  1 348 5.61227804E-09
  1 349 5.44357172E-09
  1 350 5.37735208E-09
  1 351 5.34447118E-09
  1 352 5.24450374E-09
  1 353 5.33087081E-09
  1 354 5.26437168E-09
  1 355 5.20236961E-09
  1 356 5.14323385E-09
  1 357 5.02696682E-09
  1 358 5.12171192E-09
  1 359 5.20447851E-09
  1 360 5.35712931E-09
  1 361 5.52974131E-09
  1 362 5.43400994E-09
  1 363 5.60994865E-09
  1 364 5.62952295E-09
  1 365 5.77556167E-09
  1 366 5.91150447E-09
  1 367 6.02282071E-09
  1 368 6.31427486E-09
  1 369 6.44128533E-09
  1 370 6.41151392E-09
  1 371 6.55491096E-09
  1 372 6.55640229E-09
  1 373 6.42989629E-09
  1 374 6.44986195E-09
  1 375 6.46321501E-09
  1 376 6.30875003E-09
  1 377 6.35824801E-09
  1 378 6.32880204E-09
  1 379 6.36337814E-09
  1 380 6.19774266E-09
  1 381 6.18875647E-09
  1 382 6.07326521E-09
  1 383 6.02815055E-09
  1 384 6.07719636E-09
  1 385 5.95768780E-09
  1 386 5.99494527E-09
  1 387 5.97880113E-09
  1 388 6.15368901E-09
  1 389 6.23230147E-09
  1 390 6.22207064E-09
  1 391 6.50493236E-09
  1 392 6.59313158E-09
  1 393 6.56808215E-09
  1 394 6.42520835E-09
  1 395 6.35873437E-09
  1 396 6.34243856E-09
  1 397 6.34883383E-09
  1 398 6.32015042E-09
  1 399 6.24057927E-09
  1 400 6.31017212E-09
  1 401 4.36083651E-09
  1 402 4.42138380E-09
  1 403 4.43198134E-09
  1 404 4.34221671E-09
  1 405 4.47064056E-09
  1 406 4.50367794E-09
  1 407 4.56518078E-09
  1 408 4.54192512E-09
  1 409 4.53898098E-09
  1 410 4.50217710E-09
  1 411 4.47742990E-09
  1 412 4.46348665E-09
  1 413 4.47335277E-09
  1 414 4.65293346E-09
  1 415 4.62523016E-09
  1 416 4.68683752E-09
  1 417 4.75950600E-09
  1 418 4.79413193E-09
  1 419 4.93673460E-09
  1 420 4.99487662E-09
  1 421 5.07473492E-09
  1 422 5.13788004E-09
  1 423 5.18807126E-09
  1 424 5.14204451E-09
  1 425 5.15241010E-09
  1 426 5.24377872E-09
  1 427 5.43796606E-09
  1 428 5.51850989E-09
  1 429 5.53716818E-09
  1 430 5.60212866E-09
  1 431 5.51965280E-09
  1 432 5.55341935E-09
  1 433 5.66436391E-09
  1 434 5.60972119E-09
  1 435 5.67961587E-09
  1 436 5.66638567E-09
  1 437 5.63364658E-09
  1 438 5.61871613E-09
  1 439 5.56393944E-09
  1 440 5.58745386E-09
  1 441 5.72197622E-09
  1 442 5.72682839E-09
  1 443 5.82122517E-09
  1 444 5.95475136E-09
  1 445 5.76543873E-09
  1 446 5.81794298E-09
  1 447 5.64195635E-09
  1 448 5.61699401E-09
  1 449 5.45835213E-09
  1 450 5.38007824E-09
  1 451 5.32825563E-09
  1 452 5.23969690E-09
  1 453 5.36320287E-09
  1 454 5.34060202E-09
  1 455 5.29191266E-09
  1 456 5.25375942E-09
  1 457 5.16898264E-09
  1 458 5.33291422E-09
  1 459 5.42740548E-09
  1 460 5.53123355E-09
  1 461 5.68516564E-09
  1 462 5.67007291E-09
  1 463 5.95862617E-09
  1 464 6.03858714E-09
  1 465 6.22089864E-09
  1 466 6.42319357E-09
  1 467 6.46641051E-09
  1 468 6.66363995E-09
  1 469 6.73260711E-09
  1 470 6.67387023E-09
  1 471 6.74174094E-09
  1 472 6.68241408E-09
  1 473 6.47009456E-09
  1 474 6.47199390E-09
  1 475 6.52955153E-09
  1 476 6.38830393E-09
  1 477 6.42058365E-09
  1 478 6.29924104E-09
  1 479 6.24800195E-09
  1 480 6.01292285E-09
  1 481 6.02189228E-09
  1 482 5.96958708E-09
  1 483 5.93447898E-09
  1 484 5.98774168E-09
  1 485 6.00698506E-09
  1 486 6.17602918E-09
  1 487 6.22562061E-09
  1 488 6.37721160E-09
  1 489 6.41080046E-09
  1 490 6.29668188E-09
  1 491 6.49242689E-09
  1 492 6.56125282E-09
  1 493 6.52704098E-09
  1 494 6.39243059E-09
  1 495 6.28419964E-09
  1 496 6.21201586E-09
  1 497 6.24086465E-09
  1 498 6.29276139E-09
  1 499 6.35745823E-09
  1 500 6.51297108E-09
  1 501 4.58902871E-09
  1 502 4.67730311E-09
  1 503 4.68105225E-09
  1 504 4.58522172E-09
  1 505 4.68932233E-09
  1 506 4.69823537E-09
  1 507 4.72414891E-09
  1 508 4.63164808E-09
  1 509 4.66000321E-09
  1 510 4.68183388E-09
  1 511 4.66463087E-09
  1 512 4.63599239E-09
  1 513 4.66885099E-09
  1 514 4.87974338E-09
  1 515 4.91302481E-09
  1 516 4.99838462E-09
  1 517 5.08395520E-09
  1 518 5.14176407E-09
  1 519 5.28306251E-09
  1 520 5.29484832E-09
  1 521 5.31619716E-09
  1 522 5.34890079E-09
  1 523 5.42181515E-09
  1 524 5.44479479E-09
  1 525 5.50550454E-09
  1 526 5.61834395E-09
  1 527 5.81540555E-09
  1 528 5.82148294E-09
  1 529 5.78339045E-09
  1 530 5.78584691E-09
  1 531 5.69380200E-09
  1 532 5.77031387E-09
  1 533 5.85723723E-09
  1 534 5.83199404E-09
  1 535 5.89878947E-09
  1 536 5.87840296E-09
  1 537 5.84832970E-09
  1 538 5.81050749E-09
  1 539 5.79258441E-09
  1 540 5.84095745E-09
  1 541 5.93802166E-09
  1 542 5.86525560E-09
  1 543 5.90299330E-09
  1 544 5.97354312E-09
  1 545 5.63527632E-09
  1 546 5.65770177E-09
  1 547 5.46112736E-09
  1 548 5.40086176E-09
  1 549 5.29362999E-09
  1 550 5.25063561E-09
  1 551 5.22810418E-09
  1 552 5.17270435E-09
  1 553 5.34909447E-09
  1 554 5.36831602E-09
  1 555 5.37794538E-09
  1 556 5.43002699E-09
  1 557 5.40233161E-09
  1 558 5.56549206E-09
  1 559 5.68197911E-09
  1 560 5.86873949E-09
  1 561 6.19609687E-09
  1 562 6.23022017E-09
  1 563 6.53014094E-09
  1 564 6.58371100E-09
  1 565 6.67683529E-09
  1 566 6.77247208E-09
  1 567 6.77300643E-09
  1 568 6.91672287E-09
  1 569 6.86048440E-09
  1 570 6.72391204E-09
  1 571 6.73028407E-09
  1 572 6.64715054E-09
  1 573 6.46254056E-09
  1 574 6.48378258E-09
  1 575 6.49497959E-09
  1 576 6.29636857E-09
  1 577 6.26893576E-09
  1 578 6.12715432E-09
  1 579 6.10340801E-09
  1 580 5.94655396E-09
  1 581 5.99938824E-09
  1 582 6.01050089E-09
  1 583 6.12125682E-09
  1 584 6.27924310E-09
  1 585 6.26901597E-09
  1 586 6.34377926E-09
  1 587 6.26991368E-09
  1 588 6.32304992E-09
  1 589 6.33162020E-09
  1 590 6.21246547E-09
  1 591 6.38044037E-09
  1 592 6.41805628E-09
  1 593 6.42373644E-09
  1 594 6.33559185E-09
  1 595 6.34607433E-09
  1 596 6.41282532E-09
  1 597 6.51799946E-09
  1 598 6.67487300E-09
  1 599 6.76657004E-09
  1 600 6.90232658E-09
  1 601 4.79362913E-09
  1 602 4.90562536E-09
  1 603 4.96819756E-09
  1 604 4.84896105E-09
  1 605 4.88478518E-09
  1 606 4.84576914E-09
  1 607 4.83947409E-09
  1 608 4.77300231E-09
  1 609 4.80037332E-09
  1 610 4.84363523E-09
  1 611 4.84853543E-09
  1 612 4.85986661E-09
  1 613 4.91271804E-09
  1 614 5.16622103E-09
  1 615 5.15790273E-09
  1 616 5.27498932E-09
  1 617 5.33925169E-09
  1 618 5.32799103E-09
  1 619 5.46434362E-09
  1 620 5.54453088E-09
  1 621 5.63742549E-09
  1 622 5.68264009E-09
  1 623 5.72687857E-09
  1 624 5.75398237E-09
  1 625 5.74517144E-09
  1 626 5.77699835E-09
  1 627 5.90680909E-09
  1 628 5.86999487E-09
  1 629 5.83068974E-09
  1 630 5.91630225E-09
  1 631 5.86006004E-09
  1 632 5.94855779E-09
  1 633 6.08418111E-09
  1 634 6.05455327E-09
  1 635 6.12273488E-09
  1 636 6.10686990E-09
  1 637 6.04051151E-09
  1 638 5.99737353E-09
  1 639 5.88159482E-09
  1 640 5.88039812E-09
  1 641 5.92604589E-09
  1 642 5.78923170E-09
  1 643 5.74467223E-09
  1 644 5.73835079E-09
  1 645 5.44139904E-09
  1 646 5.48612082E-09
  1 647 5.34216544E-09
  1 648 5.37383053E-09
  1 649 5.26552879E-09
  1 650 5.24562780E-09
  1 651 5.25106621E-09
  1 652 5.31373447E-09
  1 653 5.58704582E-09
  1 654 5.69839192E-09
  1 655 5.72206658E-09
  1 656 5.77465504E-09
  1 657 5.82318881E-09
  1 658 6.05440685E-09
  1 659 6.25711019E-09
  1 660 6.51619095E-09
  1 661 6.77274626E-09
  1 662 6.74811330E-09
  1 663 6.97899737E-09
  1 664 6.96708265E-09
  1 665 7.01602625E-09
  1 666 7.03529693E-09
  1 667 6.93743564E-09
  1 668 7.03214753E-09
  1 669 6.93066360E-09
  1 670 6.71625176E-09
  1 671 6.66475396E-09
  1 672 6.61387274E-09
  1 673 6.43547589E-09
  1 674 6.43977284E-09
  1 675 6.41329881E-09
  1 676 6.17969671E-09
  1 677 6.14018725E-09
  1 678 6.06096331E-09
  1 679 6.09029904E-09
  1 680 5.97238081E-09
  1 681 6.07765405E-09
  1 682 6.10580051E-09
  1 683 6.20733347E-09
  1 684 6.30729195E-09
  1 685 6.19304119E-09
  1 686 6.19171390E-09
  1 687 6.15914069E-09
  1 688 6.27020895E-09
  1 689 6.34507978E-09
  1 690 6.25202588E-09
  1 691 6.47107569E-09
  1 692 6.57418437E-09
  1 693 6.66141218E-09
  1 694 6.65382704E-09
  1 695 6.72645810E-09
  1 696 6.83188342E-09
  1 697 6.97208123E-09
  1 698 7.08954389E-09
  1 699 7.19450521E-09
  1 700 7.36850046E-09
  1 701 5.01454431E-09
  1 702 5.14372608E-09
  1 703 5.14107802E-09
  1 704 4.97300618E-09
  1 705 5.01193804E-09
  1 706 4.97685544E-09
  1 707 4.99128171E-09
  1 708 4.91252280E-09
  1 709 4.93528278E-09
  1 710 4.96772800E-09
  1 711 4.96476292E-09
  1 712 4.98334825E-09
  1 713 5.02252886E-09
  1 714 5.26333215E-09
  1 715 5.26115909E-09
  1 716 5.34417226E-09
  1 717 5.52517754E-09
  1 718 5.63412315E-09
  1 719 5.83478564E-09
  1 720 5.87670807E-09
  1 721 5.91885970E-09
  1 722 5.91044481E-09
  1 723 5.92986100E-09
  1 724 5.89678493E-09
  1 725 5.88162339E-09
  1 726 5.94370054E-09
  1 727 6.13842352E-09
  1 728 6.11989603E-09
  1 729 6.12609890E-09
  1 730 6.17992977E-09
  1 731 6.12174727E-09
  1 732 6.24124476E-09
  1 733 6.33694345E-09
  1 734 6.26259945E-09
  1 735 6.26898223E-09
  1 736 6.16677804E-09
  1 737 6.07629766E-09
  1 738 5.98498040E-09
  1 739 5.84948621E-09
  1 740 5.82173972E-09
  1 741 5.86925810E-09
  1 742 5.70708610E-09
  1 743 5.67144608E-09
  1 744 5.70007800E-09
  1 745 5.47759283E-09
  1 746 5.60232469E-09
  1 747 5.50492165E-09
  1 748 5.51712124E-09
  1 749 5.42932435E-09
  1 750 5.48375190E-09
  1 751 5.60215531E-09
  1 752 5.69043290E-09
  1 753 5.98367825E-09
  1 754 6.13466601E-09
  1 755 6.21691931E-09
  1 756 6.38353302E-09
  1 757 6.46139541E-09
  1 758 6.75223877E-09
  1 759 6.87524220E-09
  1 760 6.98254141E-09
  1 761 7.16955754E-09
  1 762 7.09873762E-09
  1 763 7.27796640E-09
  1 764 7.19580033E-09
  1 765 7.15394757E-09
  1 766 7.10439812E-09
  1 767 6.93245775E-09
  1 768 6.93173292E-09
  1 769 6.76357617E-09
  1 770 6.56762480E-09
  1 771 6.58611238E-09
  1 772 6.51263720E-09
  1 773 6.31703955E-09
  1 774 6.26269914E-09
  1 775 6.24549015E-09
  1 776 6.04100715E-09
  1 777 6.02207778E-09
  1 778 5.92845680E-09
  1 779 6.01106420E-09
  1 780 5.93809073E-09
  1 781 6.06116917E-09
  1 782 6.04921472E-09
  1 783 6.11412450E-09
  1 784 6.21477268E-09
  1 785 6.19531851E-09
  1 786 6.25894706E-09
  1 787 6.27546414E-09
  1 788 6.39772909E-09
  1 789 6.47054720E-09
  1 790 6.45019484E-09
  1 791 6.74390117E-09
  1 792 6.90466102E-09
  1 793 7.03890592E-09
  1 794 7.05772888E-09
  1 795 7.15539674E-09
  1 796 7.24595462E-09
  1 797 7.30308050E-09
  1 798 7.39440602E-09
  1 799 7.53618630E-09
  1 800 7.67604359E-09
  1 801 5.24624068E-09
  1 802 5.34061318E-09
  1 803 5.28789147E-09
  1 804 5.08466153E-09
  1 805 5.09686432E-09
  1 806 5.05002588E-09
  1 807 5.07750127E-09
  1 808 5.00548930E-09
  1 809 5.02287496E-09
  1 810 5.02563799E-09
  1 811 5.00867526E-09
  1 812 5.05573250E-09
  1 813 5.17346594E-09
  1 814 5.43874662E-09
  1 815 5.48411022E-09
  1 816 5.66805081E-09
  1 817 5.89585863E-09
  1 818 5.95131057E-09
  1 819 6.09226031E-09
  1 820 6.07985264E-09
  1 821 6.05311517E-09
  1 822 6.04753120E-09
  1 823 6.10166978E-09
  1 824 6.12508849E-09
  1 825 6.18850366E-09
  1 826 6.30509251E-09
  1 827 6.50307269E-09
  1 828 6.48588896E-09
  1 829 6.44263155E-09
  1 830 6.46507794E-09
  1 831 6.34435359E-09
  1 832 6.38806011E-09
  1 833 6.42753324E-09
  1 834 6.28739084E-09
  1 835 6.26183647E-09
  1 836 6.13045089E-09
  1 837 6.00673155E-09
  1 838 5.98052591E-09
  1 839 5.83807611E-09
  1 840 5.86219717E-09
  1 841 5.95248936E-09
  1 842 5.80990898E-09
  1 843 5.81598009E-09
  1 844 5.86076280E-09
  1 845 5.59977638E-09
  1 846 5.68490259E-09
  1 847 5.59390026E-09
  1 848 5.69205496E-09
  1 849 5.70255012E-09
  1 850 5.83576998E-09
  1 851 6.00990338E-09
  1 852 6.11410301E-09
  1 853 6.52088512E-09
  1 854 6.73651150E-09
  1 855 6.81538255E-09
  1 856 6.91614682E-09
  1 857 6.96080934E-09
  1 858 7.11479789E-09
  1 859 7.15010604E-09
  1 860 7.26172733E-09
  1 861 7.45044481E-09
  1 862 7.27816383E-09
  1 863 7.33131922E-09
  1 864 7.21720176E-09
  1 865 7.11391876E-09
  1 866 6.93140201E-09
  1 867 6.69020601E-09
  1 868 6.68429481E-09
  1 869 6.57658207E-09
  1 870 6.42608644E-09
  1 871 6.39397060E-09
  1 872 6.25525198E-09
  1 873 6.05793702E-09
  1 874 6.03111660E-09
  1 875 6.02862819E-09
  1 876 5.88122332E-09
  1 877 5.88236244E-09
  1 878 5.82895062E-09
  1 879 5.96845341E-09
  1 880 5.86699474E-09
  1 881 5.96424248E-09
  1 882 5.97992165E-09
  1 883 6.07732958E-09
  1 884 6.20561298E-09
  1 885 6.18636267E-09
  1 886 6.27175494E-09
  1 887 6.33781602E-09
  1 888 6.53068696E-09
  1 889 6.66772206E-09
  1 890 6.68706867E-09
  1 891 7.01683386E-09
  1 892 7.18460504E-09
  1 893 7.39983087E-09
  1 894 7.35987607E-09
  1 895 7.40375710E-09
  1 896 7.47683802E-09
  1 897 7.58671463E-09
  1 898 7.73390177E-09
  1 899 7.89393315E-09
  1 900 7.88864006E-09
  1 901 5.45812427E-09
  1 902 5.45334269E-09
  1 903 5.35217763E-09
  1 904 5.14788336E-09
  1 905 5.13641101E-09
  1 906 5.07062989E-09
  1 907 5.10764585E-09
  1 908 5.06574545E-09
  1 909 5.15776688E-09
  1 910 5.26134554E-09
  1 911 5.33042136E-09
  1 912 5.40797375E-09
  1 913 5.51593072E-09
  1 914 5.84575021E-09
  1 915 5.91460906E-09
  1 916 6.09656594E-09
  1 917 6.24337473E-09
  1 918 6.24299373E-09
  1 919 6.29284694E-09
  1 920 6.23714843E-09
  1 921 6.24293724E-09
  1 922 6.32903078E-09
  1 923 6.42271715E-09
  1 924 6.47332951E-09
  1 925 6.54124858E-09
  1 926 6.60817148E-09
  1 927 6.77496392E-09
  1 928 6.70390720E-09
  1 929 6.64537569E-09
  1 930 6.67996779E-09
  1 931 6.54339191E-09
  1 932 6.53168718E-09
  1 933 6.50421674E-09
  1 934 6.31781021E-09
  1 935 6.27109883E-09
  1 936 6.18761442E-09
  1 937 6.07752986E-09
  1 938 6.05310401E-09
  1 939 5.97498577E-09
  1 940 5.98300084E-09
  1 941 6.04333115E-09
  1 942 5.84281668E-09
  1 943 5.76792529E-09
  1 944 5.85691736E-09
  1 945 5.65923299E-09
  1 946 5.83640633E-09
  1 947 5.82368746E-09
  1 948 6.00921574E-09
  1 949 6.07386954E-09
  1 950 6.26039867E-09
  1 951 6.50674222E-09
  1 952 6.68344861E-09
  1 953 7.05270621E-09
  1 954 7.24550308E-09
  1 955 7.23432710E-09
  1 956 7.27343880E-09
  1 957 7.20559691E-09
  1 958 7.27487676E-09
  1 959 7.24001211E-09
  1 960 7.26309426E-09
  1 961 7.36986177E-09
  1 962 7.11183962E-09
  1 963 7.09445807E-09
  1 964 6.86444381E-09
  1 965 6.68494067E-09
  1 966 6.52579786E-09
  1 967 6.41278119E-09
  1 968 6.49414148E-09
  1 969 6.39300285E-09
  1 970 6.22841464E-09
  1 971 6.18443000E-09
  1 972 6.05948018E-09
  1 973 5.93221342E-09
  1 974 5.93782346E-09
  1 975 5.90786434E-09
  1 976 5.77689806E-09
  1 977 5.83035805E-09
  1 978 5.74719914E-09
  1 979 5.86508321E-09
  1 980 5.77888836E-09
  1 981 5.87408423E-09
  1 982 5.90131330E-09
  1 983 5.97550835E-09
  1 984 6.11514645E-09
  1 985 6.19052944E-09
  1 986 6.37032220E-09
  1 987 6.53506020E-09
  1 988 6.75797417E-09
  1 989 6.94666990E-09
  1 990 6.95976777E-09
  1 991 7.30970734E-09
  1 992 7.42047676E-09
  1 993 7.48977189E-09
  1 994 7.38872610E-09
  1 995 7.44288421E-09
  1 996 7.62496676E-09
  1 997 7.69907663E-09
  1 998 7.71407070E-09
  1 999 7.72907930E-09
  1 1000 7.67410500E-09
  1 1001 5.47329786E-09
  1 1002 5.48998746E-09
  1 1003 5.44873099E-09
  1 1004 5.28002887E-09
  1 1005 5.31585147E-09
  1 1006 5.32664881E-09
  1 1007 5.44281852E-09
  1 1008 5.40933632E-09
  1 1009 5.55643516E-09
  1 1010 5.70587927E-09
  1 1011 5.75468239E-09
  1 1012 5.82926643E-09
  1 1013 5.97213879E-09
  1 1014 6.30245562E-09
  1 1015 6.34157103E-09
  1 1016 6.44972183E-09
  1 1017 6.50817441E-09
  1 1018 6.41881534E-09
  1 1019 6.48466292E-09
  1 1020 6.55009987E-09
  1 1021 6.61475577E-09
  1 1022 6.68713512E-09
  1 1023 6.80582588E-09
  1 1024 6.81267587E-09
  1 1025 6.82855551E-09
  1 1026 6.86107076E-09
  1 1027 6.97657932E-09
  1 1028 6.89462312E-09
  1 1029 6.84243112E-09
  1 1030 6.78687926E-09
  1 1031 6.59025068E-09
  1 1032 6.57717270E-09
  1 1033 6.56256871E-09
  1 1034 6.40975861E-09
  1 1035 6.37014128E-09
  1 1036 6.34439742E-09
  1 1037 6.25635319E-09
  1 1038 6.20038137E-09
  1 1039 6.05156725E-09
  1 1040 5.98658945E-09
  1 1041 6.00722423E-09
  1 1042 5.84864302E-09
  1 1043 5.88091853E-09
  1 1044 6.06168138E-09
  1 1045 5.97760614E-09
  1 1046 6.24339545E-09
  1 1047 6.33400798E-09
  1 1048 6.61205505E-09
  1 1049 6.72386132E-09
  1 1050 6.94073557E-09
  1 1051 7.10556274E-09
  1 1052 7.17714594E-09
  1 1053 7.46615047E-09
  1 1054 7.59320300E-09
  1 1055 7.55304134E-09
  1 1056 7.44896632E-09
  1 1057 7.27705323E-09
  1 1058 7.27579408E-09
  1 1059 7.16622953E-09
  1 1060 7.11279653E-09
  1 1061 7.12782071E-09
  1 1062 6.78791022E-09
  1 1063 6.72418872E-09
  1 1064 6.52934217E-09
  1 1065 6.45973818E-09
  1 1066 6.45291825E-09
  1 1067 6.35321389E-09
  1 1068 6.38923929E-09
  1 1069 6.28476087E-09
  1 1070 6.08060012E-09
  1 1071 6.05151471E-09
  1 1072 5.96054054E-09
  1 1073 5.77872888E-09
  1 1074 5.76214802E-09
  1 1075 5.79898964E-09
  1 1076 5.70638320E-09
  1 1077 5.78654281E-09
  1 1078 5.75804901E-09
  1 1079 5.85420237E-09
  1 1080 5.77141775E-09
  1 1081 5.90175621E-09
  1 1082 5.93265008E-09
  1 1083 6.08941564E-09
  1 1084 6.33831013E-09
  1 1085 6.48134544E-09
  1 1086 6.68052832E-09
  1 1087 6.81697647E-09
  1 1088 7.04870058E-09
  1 1089 7.15713486E-09
  1 1090 7.05228373E-09
  1 1091 7.19813670E-09
  1 1092 7.19131286E-09
  1 1093 7.28861291E-09
  1 1094 7.21984613E-09
  1 1095 7.24834361E-09
  1 1096 7.33691106E-09
  1 1097 7.35447435E-09
  1 1098 7.36785043E-09
  1 1099 7.47760072E-09
  1 1100 7.42656106E-09
  1 1101 5.58276248E-09
  1 1102 5.68470736E-09
  1 1103 5.66489050E-09
  1 1104 5.55969184E-09
  1 1105 5.67645214E-09
  1 1106 5.69609485E-09
  1 1107 5.83163145E-09
  1 1108 5.82942771E-09
  1 1109 5.97538644E-09
  1 1110 6.12294125E-09
  1 1111 6.17346113E-09
  1 1112 6.22719613E-09
  1 1113 6.36248465E-09
  1 1114 6.64742260E-09
  1 1115 6.65068140E-09
  1 1116 6.70648686E-09
  1 1117 6.82888872E-09
  1 1118 6.80644449E-09
  1 1119 6.88195285E-09
  1 1120 6.84985828E-09
  1 1121 6.89110010E-09
  1 1122 6.97965693E-09
  1 1123 7.09983825E-09
  1 1124 7.11981244E-09
  1 1125 7.11073356E-09
  1 1126 7.02726517E-09
  1 1127 7.10547082E-09
  1 1128 6.96997953E-09
  1 1129 6.85152579E-09
  1 1130 6.80697516E-09
  1 1131 6.61543048E-09
  1 1132 6.62500691E-09
  1 1133 6.61752191E-09
  1 1134 6.48315741E-09
  1 1135 6.51908293E-09
  1 1136 6.48431113E-09
  1 1137 6.34429547E-09
  1 1138 6.23151271E-09
  1 1139 6.07877840E-09
  1 1140 6.05291726E-09
  1 1141 6.15386229E-09
  1 1142 6.16373029E-09
  1 1143 6.34284197E-09
  1 1144 6.65559377E-09
  1 1145 6.60166546E-09
  1 1146 6.93761324E-09
  1 1147 6.98012558E-09
  1 1148 7.16801867E-09
  1 1149 7.20448124E-09
  1 1150 7.34855075E-09
  1 1151 7.55093352E-09
  1 1152 7.60579285E-09
  1 1153 7.80796513E-09
  1 1154 7.82310614E-09
  1 1155 7.64153529E-09
  1 1156 7.43605151E-09
  1 1157 7.16608647E-09
  1 1158 7.04383109E-09
  1 1159 6.90430681E-09
  1 1160 6.83902488E-09
  1 1161 6.84959957E-09
  1 1162 6.62165253E-09
  1 1163 6.66388888E-09
  1 1164 6.55720626E-09
  1 1165 6.53933192E-09
  1 1166 6.44590338E-09
  1 1167 6.30238637E-09
  1 1168 6.32235634E-09
  1 1169 6.22802691E-09
  1 1170 6.06224432E-09
  1 1171 5.99854336E-09
  1 1172 5.84359672E-09
  1 1173 5.74133776E-09
  1 1174 5.76730961E-09
  1 1175 5.83323755E-09
  1 1176 5.77842920E-09
  1 1177 5.87381037E-09
  1 1178 5.89298676E-09
  1 1179 6.04569542E-09
  1 1180 5.96971425E-09
  1 1181 6.10679785E-09
  1 1182 6.19391783E-09
  1 1183 6.42777874E-09
  1 1184 6.61332781E-09
  1 1185 6.66192547E-09
  1 1186 6.79690308E-09
  1 1187 6.85177080E-09
  1 1188 6.92000144E-09
  1 1189 6.91408873E-09
  1 1190 6.77690753E-09
  1 1191 6.96135813E-09
  1 1192 6.99291434E-09
  1 1193 7.06153760E-09
  1 1194 6.94773748E-09
  1 1195 6.98404385E-09
  1 1196 7.06917136E-09
  1 1197 7.10049115E-09
  1 1198 7.14039323E-09
  1 1199 7.18063315E-09
  1 1200 7.12322939E-09
  1 1201 5.81796854E-09
  1 1202 5.91278061E-09
  1 1203 5.94897443E-09
  1 1204 5.87397907E-09
  1 1205 6.01221887E-09
  1 1206 6.08776056E-09
  1 1207 6.26926333E-09
  1 1208 6.24317536E-09
  1 1209 6.35736428E-09
  1 1210 6.46965962E-09
  1 1211 6.49717780E-09
  1 1212 6.54123426E-09
  1 1213 6.69626937E-09
  1 1214 7.04778051E-09
  1 1215 7.06617138E-09
  1 1216 7.10049784E-09
  1 1217 7.19756581E-09
  1 1218 7.12852877E-09
  1 1219 7.21810543E-09
  1 1220 7.28062454E-09
  1 1221 7.30171372E-09
  1 1222 7.29694337E-09
  1 1223 7.28597775E-09
  1 1224 7.16798041E-09
  1 1225 7.09785030E-09
  1 1226 7.05187572E-09
  1 1227 7.08463038E-09
  1 1228 6.92171424E-09
  1 1229 6.79104378E-09
  1 1230 6.71713067E-09
  1 1231 6.54438953E-09
  1 1232 6.59930786E-09
  1 1233 6.63584910E-09
  1 1234 6.53506276E-09
  1 1235 6.55889002E-09
  1 1236 6.48823496E-09
  1 1237 6.37532439E-09
  1 1238 6.34532795E-09
  1 1239 6.28804077E-09
  1 1240 6.39282431E-09
  1 1241 6.67390964E-09
  1 1242 6.79787883E-09
  1 1243 7.05803535E-09
  1 1244 7.32544289E-09
  1 1245 7.16247703E-09
  1 1246 7.41143992E-09
  1 1247 7.38973973E-09
  1 1248 7.52236604E-09
  1 1249 7.50471865E-09
  1 1250 7.58433566E-09
  1 1251 7.63419637E-09
  1 1252 7.53325467E-09
  1 1253 7.63287973E-09
  1 1254 7.60793298E-09
  1 1255 7.37157791E-09
  1 1256 7.11631134E-09
  1 1257 6.86896465E-09
  1 1258 6.80646054E-09
  1 1259 6.76239109E-09
  1 1260 6.80748225E-09
  1 1261 6.88991936E-09
  1 1262 6.63839302E-09
  1 1263 6.68740218E-09
  1 1264 6.54099222E-09
  1 1265 6.41205546E-09
  1 1266 6.30232510E-09
  1 1267 6.17484060E-09
  1 1268 6.22256981E-09
  1 1269 6.11671064E-09
  1 1270 5.96747429E-09
  1 1271 5.96932428E-09
  1 1272 5.91963718E-09
  1 1273 5.86258980E-09
  1 1274 5.93159721E-09
  1 1275 6.04181784E-09
  1 1276 6.03282699E-09
  1 1277 6.15538744E-09
  1 1278 6.11643560E-09
  1 1279 6.26149981E-09
  1 1280 6.23453070E-09
  1 1281 6.41883447E-09
  1 1282 6.47132001E-09
  1 1283 6.60235917E-09
  1 1284 6.79770396E-09
  1 1285 6.84443189E-09
  1 1286 6.89788629E-09
  1 1287 6.81063028E-09
  1 1288 6.80105616E-09
  1 1289 6.76758832E-09