# File generated by Flopy version 3.7.0 on 06/20/2024 at 16:46:18.
BEGIN options
  PRINT_OPTION  summary
  COMPLEXITY  complex
END options

BEGIN linear
  LINEAR_ACCELERATION  bicgstab
END linear

