# File generated by Flopy version 3.5.0 on 03/08/2024 at 12:51:18.
BEGIN options
END options

BEGIN griddata
  icelltype
    CONSTANT  0
  k
    INTERNAL  FACTOR  1.0
    2.73580580E-05  2.98833047E-05  3.94206334E-05  3.86431655E-05  4.30983300E-05  3.73010263E-05  3.20602524E-05  3.45061731E-05  3.44476045E-05  3.81995343E-05  4.87105062E-05  4.64188355E-05  5.29465853E-05  6.71128055E-05  6.37330900E-05  7.80824915E-05  8.31385857E-05  9.81699518E-05  1.27233177E-04  1.51097056E-04
    1.71197618E-04  2.35954195E-04  2.30104940E-04  2.88068243E-04  2.55165207E-04  2.03263530E-04  2.27256491E-04  2.77786780E-04  2.97518491E-04  3.52166316E-04  3.28323619E-04  3.63722845E-04  4.55123550E-04  4.58376412E-04  6.23221502E-04  7.55983124E-04  9.57054798E-04       0.00114200  9.58897734E-04  7.26732934E-04
    9.47483963E-04  9.43498799E-04       0.00104739  8.89829460E-04  7.38249724E-04  7.54899385E-04  7.78958226E-04  7.08573627E-04  8.42007133E-04  8.30877077E-04  8.72711118E-04  7.66241837E-04  4.14411626E-04  3.41381905E-04  3.73543577E-04  4.27706932E-04  5.11800280E-04  5.76489922E-04  6.44507683E-04  9.73978191E-04
    9.63973576E-04       0.00108450       0.00116434       0.00124513       0.00146568       0.00132294  8.69063405E-04  8.79130996E-04  7.99865711E-04  6.82475396E-04  5.88818278E-04  4.58736912E-04  5.09159036E-04  5.99389457E-04  5.85045964E-04  6.59401094E-04  7.17186327E-04  8.06652997E-04       0.00115017       0.00105642
         0.00103453       0.00113935  9.74908634E-04  7.97699971E-04  6.52762783E-04  5.37053444E-04  6.61935033E-04  6.63394123E-04  6.01324442E-04  5.31098513E-04  3.73167061E-04  3.29925869E-04  3.53474328E-04  3.08919301E-04  3.72136410E-04  4.14931434E-04  3.73255368E-04  3.50238140E-04  2.88206252E-04  2.73424990E-04
    2.68230770E-05  3.19782110E-05  4.03782250E-05  3.56627441E-05  3.76745294E-05  3.91563407E-05  3.60843139E-05  3.65059530E-05  2.99723300E-05  3.10627033E-05  4.63021403E-05  5.19987223E-05  5.12823130E-05  5.93911146E-05  5.80476284E-05  7.84780224E-05  8.32184661E-05  8.44851261E-05  1.03355290E-04  1.35696817E-04
    1.62115494E-04  2.03713442E-04  1.73317179E-04  2.19229316E-04  2.63516706E-04  2.20524601E-04  2.02947149E-04  2.07331525E-04  2.40656777E-04  3.29523994E-04  3.29050603E-04  3.07640203E-04  3.82827634E-04  4.10020377E-04  5.88135916E-04  6.47976729E-04  7.37946875E-04       0.00102472       0.00118215  8.81204400E-04
    8.95389914E-04  7.97375807E-04  9.81763539E-04       0.00105038  8.42804027E-04  7.45967207E-04  7.24559343E-04  7.17038513E-04  8.57631151E-04  7.90444785E-04  7.34149214E-04  8.08372923E-04  5.17979576E-04  3.75789349E-04  3.08316520E-04  3.22312878E-04  4.34108767E-04  5.81680025E-04  5.89526471E-04  7.70538477E-04
    7.58167123E-04  9.35317185E-04       0.00109189       0.00104369       0.00117075       0.00126822  9.54775943E-04  8.54306858E-04  7.02085345E-04  5.91769576E-04  6.29108640E-04  5.29206896E-04  5.20186425E-04  5.19903834E-04  5.14244777E-04  6.52406743E-04  7.92836101E-04  7.69785741E-04       0.00104554       0.00108739
         0.00115047       0.00123270       0.00100904  8.44830323E-04  7.90929025E-04  6.51019735E-04  6.76082408E-04  5.98638752E-04  5.53244156E-04  6.11290176E-04  4.61221372E-04  3.40804442E-04  3.22457753E-04  2.99936624E-04  3.82830944E-04  4.57460237E-04  3.91554777E-04  3.81683280E-04  3.41781562E-04  3.19317278E-04
    2.70159061E-05  2.90503153E-05  3.84530197E-05  3.88401744E-05  3.78754293E-05  3.56350838E-05  3.17877381E-05  3.89472651E-05  3.46956246E-05  2.85735677E-05  3.46701990E-05  4.46441608E-05  5.35362346E-05  6.61921327E-05  5.53770839E-05  6.52199843E-05  7.77512308E-05  8.67620426E-05  9.96627841E-05  1.10599696E-04
    1.29814181E-04  1.90110752E-04  1.72703046E-04  1.73356606E-04  2.04393386E-04  1.96874023E-04  2.14506569E-04  2.04040886E-04  1.92918679E-04  2.39835298E-04  2.94382093E-04  3.09875447E-04  3.73471690E-04  3.34635702E-04  4.67226910E-04  6.03398674E-04  6.92298715E-04  8.73786573E-04       0.00107723  9.59710004E-04
         0.00106078  8.76197791E-04  8.46486823E-04  9.31520547E-04  8.81676521E-04  9.08467860E-04  7.94225502E-04  6.52281776E-04  7.35494813E-04  7.99266284E-04  7.22129992E-04  7.83991114E-04  5.14287435E-04  3.99443989E-04  3.30751952E-04  2.98227905E-04  3.26321310E-04  4.45762559E-04  5.36060836E-04  7.85738860E-04
    7.10087449E-04  6.98075285E-04  8.55663571E-04  9.28903337E-04       0.00109329       0.00114191  8.63701069E-04  7.94910436E-04  7.40251975E-04  5.71254814E-04  5.58521937E-04  4.76283492E-04  5.49177658E-04  5.91279526E-04  5.02049807E-04  5.19733760E-04  7.04865321E-04  8.03560906E-04       0.00114145       0.00110922
         0.00106404       0.00126716       0.00121641       0.00100013  8.32935742E-04  6.79301716E-04  7.74385283E-04  7.24049134E-04  5.32699982E-04  5.35363783E-04  4.68790704E-04  4.08790476E-04  3.71555067E-04  2.86777349E-04  3.13039110E-04  4.52832739E-04  4.70329720E-04  4.59102771E-04  3.60955992E-04  3.28612638E-04
    3.01675791E-05  3.34334984E-05  3.68909171E-05  3.47706926E-05  3.63411287E-05  3.87024768E-05  3.09052400E-05  3.40884242E-05  3.38415539E-05  3.01020897E-05  3.34720469E-05  3.70251078E-05  4.14877213E-05  6.10446653E-05  6.30990707E-05  6.89843407E-05  7.03479960E-05  7.13735877E-05  9.36790084E-05  1.12461391E-04
    1.18448330E-04  1.54425075E-04  1.54094464E-04  1.58331961E-04  1.91690600E-04  1.66189231E-04  1.75479761E-04  1.87173835E-04  1.95533072E-04  2.17327829E-04  2.32622500E-04  2.39277161E-04  3.51645907E-04  3.48659894E-04  4.15665901E-04  4.86823016E-04  5.59120394E-04  7.98930916E-04       0.00109572  9.69279372E-04
         0.00101306  9.52579018E-04  9.31520312E-04  9.67320113E-04  7.72474267E-04  8.40781045E-04  8.98612947E-04  7.87134808E-04  7.15027072E-04  6.79708919E-04  5.99888047E-04  7.88976797E-04  5.87173131E-04  4.06258182E-04  3.03745700E-04  2.78924328E-04  3.11066495E-04  3.79426160E-04  4.00235070E-04  6.28724176E-04
    7.41865395E-04  7.08441314E-04  7.34967623E-04  6.66947241E-04  8.47050778E-04       0.00111081  9.35558427E-04  7.14088504E-04  6.40520430E-04  5.37123736E-04  5.90765553E-04  4.58856880E-04  4.63998383E-04  5.56252299E-04  5.62469719E-04  5.44243869E-04  6.16799491E-04  6.35559391E-04       0.00103340       0.00131951
         0.00121555       0.00122255       0.00115046       0.00115003       0.00107284  7.86146296E-04  7.55417569E-04  7.91660772E-04  6.20216249E-04  5.89250363E-04  4.44960569E-04  3.69982894E-04  3.90609298E-04  3.48736576E-04  3.17945717E-04  3.85481261E-04  4.21742989E-04  5.30077319E-04  4.77459663E-04  3.71319954E-04
    2.47862606E-05  3.36311162E-05  4.41558017E-05  3.92614591E-05  3.26636461E-05  3.37339740E-05  3.00187525E-05  3.50884879E-05  3.49288223E-05  2.74134856E-05  2.94641287E-05  3.49980487E-05  3.79883961E-05  4.95329917E-05  5.36002560E-05  6.78651553E-05  8.17928013E-05  7.18989017E-05  7.77048638E-05  9.17735523E-05
    1.11331901E-04  1.57489454E-04  1.52861925E-04  1.28765020E-04  1.60674446E-04  1.59723004E-04  1.68198428E-04  1.59048813E-04  1.59161198E-04  1.99601272E-04  2.36755974E-04  2.12279584E-04  2.68784250E-04  2.89292678E-04  3.92333668E-04  5.10254784E-04  4.89073857E-04  5.93074077E-04  9.14772567E-04       0.00106260
         0.00112159  9.61106542E-04  8.51836674E-04       0.00103036  8.57020537E-04  8.23664161E-04  8.08430323E-04  7.84902946E-04  8.10367185E-04  7.78142544E-04  5.26484190E-04  5.98967590E-04  5.57692039E-04  4.71716215E-04  3.42668617E-04  2.46457360E-04  2.51017806E-04  3.33318195E-04  3.67266318E-04  5.06964800E-04
    6.17567907E-04  6.34253649E-04  7.74478623E-04  6.41624085E-04  6.35154087E-04  7.88746983E-04  8.77572676E-04  7.88796277E-04  6.72662837E-04  4.57645106E-04  5.01287550E-04  4.53760452E-04  4.64438187E-04  5.24175204E-04  5.11120397E-04  5.23787123E-04  6.48878948E-04  6.19759986E-04  8.12691050E-04       0.00113604
         0.00128908       0.00150663       0.00126728       0.00111328       0.00109664  9.61593992E-04  9.18238549E-04  9.12910510E-04  6.31683424E-04  6.14874938E-04  5.10420753E-04  3.92803047E-04  3.59120389E-04  3.32416293E-04  3.36312121E-04  4.24677073E-04  4.14398552E-04  4.74640652E-04  4.99257513E-04  4.53172055E-04
    2.36937851E-05  2.89287039E-05  4.02950385E-05  4.40366599E-05  3.91889595E-05  3.50162499E-05  2.53627391E-05  2.81913788E-05  3.67188422E-05  3.15441670E-05  2.81902408E-05  2.79589643E-05  3.14621716E-05  4.54153485E-05  5.03260334E-05  5.63746229E-05  7.45055414E-05  7.60229843E-05  8.48812345E-05  8.49203796E-05
    8.50852742E-05  1.28093614E-04  1.67648697E-04  1.42569400E-04  1.43264399E-04  1.26669709E-04  1.45294109E-04  1.60254696E-04  1.49513556E-04  1.64162390E-04  2.01376170E-04  2.05215356E-04  2.60742168E-04  2.52540568E-04  2.88496750E-04  4.44261091E-04  5.09840830E-04  5.79369175E-04  7.24633721E-04  8.55503360E-04
         0.00108738       0.00114550  9.06890954E-04  9.69261522E-04  8.08100123E-04  8.50895772E-04  8.83984059E-04  7.78378491E-04  7.37013921E-04  8.11591357E-04  5.99628460E-04  5.77110845E-04  4.72162234E-04  4.00022482E-04  3.65497062E-04  2.78301761E-04  2.42246486E-04  2.60255289E-04  2.83111267E-04  4.22560695E-04
    6.01620160E-04  5.62851299E-04  6.72328683E-04  6.06188130E-04  6.10633341E-04  6.65652666E-04  6.83567200E-04  6.55852997E-04  7.02083606E-04  5.13695985E-04  4.84097233E-04  3.83129824E-04  3.76038766E-04  5.13017777E-04  5.52023613E-04  5.08754392E-04  5.69257736E-04  5.87775299E-04  7.65137050E-04       0.00106232
         0.00110454       0.00143407       0.00145029       0.00137527       0.00120364  9.44957855E-04  9.15188481E-04       0.00116010  8.38169845E-04  6.66866372E-04  5.00288370E-04  4.02296242E-04  3.97237119E-04  3.50725205E-04  3.09574484E-04  3.90901616E-04  4.44548497E-04  5.24817387E-04  5.25417340E-04  4.24466634E-04
    2.11931006E-05  2.86372079E-05  3.99497334E-05  4.13157697E-05  3.86157550E-05  4.01088257E-05  2.94286874E-05  2.43641178E-05  2.92519784E-05  2.96997908E-05  3.18975691E-05  2.96095076E-05  2.62032581E-05  3.32822744E-05  4.28126638E-05  5.33102684E-05  7.19779677E-05  6.84929999E-05  7.81395175E-05  8.94802587E-05
    8.43910459E-05  1.03249011E-04  1.37094372E-04  1.41024176E-04  1.61356171E-04  1.33028809E-04  1.19762788E-04  1.28154539E-04  1.33679047E-04  1.64087411E-04  1.93039595E-04  1.76259078E-04  2.20326248E-04  2.49260111E-04  2.62105110E-04  3.64366463E-04  4.15641262E-04  5.33627443E-04  7.23118515E-04  8.12014273E-04
    8.97051481E-04       0.00101271  9.33843817E-04       0.00111936  8.65572324E-04  7.46877879E-04  8.12829038E-04  8.33258271E-04  8.02728257E-04  8.09928982E-04  5.81017638E-04  5.61272777E-04  5.05488598E-04  3.84237432E-04  3.25394175E-04  2.48132371E-04  2.46724679E-04  2.70819586E-04  2.47480189E-04  2.88376638E-04
    4.70953155E-04  5.41536573E-04  6.96321024E-04  5.72280961E-04  5.08297380E-04  5.68901688E-04  6.36227989E-04  5.87197252E-04  5.92291849E-04  4.70364417E-04  5.11229212E-04  4.35969933E-04  3.24949069E-04  3.85479834E-04  4.82743052E-04  5.62217593E-04  6.21620485E-04  5.53465669E-04  6.02697420E-04  9.47280237E-04
         0.00109008       0.00140237       0.00134086       0.00138608       0.00147197       0.00118909  9.01543995E-04       0.00108447  9.77951587E-04  9.01196724E-04  6.44238293E-04  4.00025578E-04  3.61028870E-04  3.61581213E-04  3.49859799E-04  3.92479194E-04  4.05750471E-04  4.95166961E-04  6.25064440E-04  4.89515220E-04
    1.82098116E-05  2.24095597E-05  3.69146330E-05  4.50210582E-05  4.03953121E-05  3.84936127E-05  3.07427079E-05  2.53080103E-05  2.88773019E-05  2.61954536E-05  2.76477089E-05  2.95327764E-05  2.82190913E-05  3.10468446E-05  3.29214765E-05  3.85657233E-05  6.42123516E-05  7.33615133E-05  7.65953625E-05  8.11281386E-05
    7.59335853E-05  9.59762526E-05  1.29695143E-04  1.27666825E-04  1.44382620E-04  1.39835857E-04  1.30358170E-04  1.25837989E-04  1.04638023E-04  1.26683001E-04  1.86302375E-04  1.94317168E-04  2.07562384E-04  2.12363906E-04  2.15437206E-04  3.33665690E-04  3.95760931E-04  4.56200657E-04  5.95018760E-04  7.62096111E-04
    9.22822092E-04  9.79317706E-04  7.73152150E-04  9.76079519E-04  9.85186723E-04  8.50581887E-04  7.88610799E-04  7.08225688E-04  7.44690431E-04  9.01619371E-04  6.84454791E-04  5.33442722E-04  4.61794795E-04  3.77039381E-04  3.58322728E-04  2.41551743E-04  2.04023718E-04  2.36854371E-04  2.55184408E-04  2.64751103E-04
    3.61907761E-04  3.92781382E-04  6.05876528E-04  6.43435315E-04  5.32675632E-04  4.74997509E-04  4.87597201E-04  5.22342366E-04  5.90959941E-04  4.47405433E-04  4.31080123E-04  4.37506374E-04  3.44672335E-04  3.68854961E-04  3.85881550E-04  4.55393266E-04  6.11785777E-04  6.63057475E-04  6.04147482E-04  7.65815191E-04
    8.48162373E-04       0.00131720       0.00145769       0.00138756       0.00143501       0.00133130       0.00106801       0.00118034  9.98582110E-04  9.25126052E-04  8.30262886E-04  5.39506295E-04  4.07706505E-04  3.24789099E-04  3.16616860E-04  4.11397079E-04  4.66941160E-04  4.85214155E-04  6.09132183E-04  5.20168243E-04
    2.03490102E-05  2.13034894E-05  2.90282549E-05  3.74695914E-05  4.14285838E-05  4.40918961E-05  3.40088413E-05  2.31415547E-05  2.60701105E-05  2.67238315E-05  2.78849108E-05  2.69562571E-05  2.45878824E-05  3.01745821E-05  3.39407063E-05  3.26347817E-05  4.54905610E-05  5.95914899E-05  7.64467763E-05  9.24448590E-05
    7.38621472E-05  7.58946306E-05  1.07605360E-04  1.29398163E-04  1.47936197E-04  1.33557222E-04  1.18657367E-04  1.33026836E-04  1.10555470E-04  1.07288308E-04  1.40491846E-04  1.71378844E-04  2.22043127E-04  2.41149165E-04  1.91338488E-04  2.46657076E-04  3.33705743E-04  4.51679194E-04  5.80049160E-04  6.45033269E-04
    7.86467664E-04  9.89832442E-04  8.01850101E-04  8.41189495E-04  8.46908101E-04  8.08675366E-04  8.96178593E-04  7.69442919E-04  6.57792946E-04  7.45804666E-04  7.19142912E-04  6.30981532E-04  5.15368743E-04  3.40499433E-04  3.29632362E-04  2.55363149E-04  2.09127340E-04  2.10038555E-04  2.14611322E-04  2.29129590E-04
    3.40537082E-04  3.51301090E-04  4.58963097E-04  5.36600403E-04  5.36366788E-04  5.29010903E-04  4.53095707E-04  4.03775662E-04  4.71679645E-04  4.42765386E-04  4.30193136E-04  4.33827935E-04  3.09783102E-04  3.37393077E-04  3.72480456E-04  4.19409871E-04  5.07397778E-04  6.09560833E-04  6.39508646E-04  8.38713665E-04
    7.67180167E-04  9.90088373E-04       0.00124253       0.00142194       0.00164483       0.00146043       0.00106289       0.00118131       0.00117175       0.00103613  9.09646433E-04  6.02905384E-04  5.16258494E-04  3.99976206E-04  3.16455323E-04  3.43802305E-04  4.42783477E-04  5.34921109E-04  7.38821491E-04  5.65347254E-04
    1.82089789E-05  2.16783307E-05  2.98687016E-05  3.39554330E-05  3.29563091E-05  3.89354548E-05  3.99809770E-05  2.75853350E-05  2.43483195E-05  2.23139693E-05  2.55213731E-05  2.93341443E-05  2.46620568E-05  2.61385276E-05  3.00016564E-05  3.14741371E-05  4.16318098E-05  4.92351672E-05  5.69493911E-05  8.48564172E-05
    8.46314737E-05  8.01132756E-05  8.81301189E-05  1.00572170E-04  1.36244291E-04  1.50867783E-04  1.23635901E-04  1.24650115E-04  1.04549449E-04  1.03225471E-04  1.31889402E-04  1.45846597E-04  1.81883441E-04  2.42276251E-04  2.20130720E-04  2.40057819E-04  2.63924306E-04  3.39038562E-04  5.36546418E-04  6.76648313E-04
    7.66203300E-04  8.73709582E-04  7.24615995E-04  7.80922653E-04  8.43867432E-04  7.18067917E-04  7.84027945E-04  7.72029932E-04  7.20987351E-04  7.28286080E-04  6.33205866E-04  5.66267432E-04  5.76931547E-04  4.06423007E-04  3.46789399E-04  2.38126208E-04  1.85625374E-04  2.05315437E-04  2.18479308E-04  2.00362071E-04
    2.67356606E-04  3.08487325E-04  4.23490716E-04  4.98969237E-04  4.47484583E-04  4.74365992E-04  4.62441726E-04  4.18739164E-04  4.11537084E-04  3.53184023E-04  3.49207142E-04  4.58062694E-04  3.44797770E-04  3.08950319E-04  3.00806884E-04  3.65575110E-04  4.94165425E-04  5.96308948E-04  5.72205692E-04  7.78121007E-04
    8.08163783E-04  9.74477595E-04       0.00108467       0.00109277       0.00150402       0.00177318       0.00133497       0.00114121       0.00108163       0.00106678       0.00114840  7.29600579E-04  5.62713396E-04  4.43189248E-04  3.74646701E-04  3.72454233E-04  4.10848356E-04  4.49290527E-04  7.67597072E-04  7.67369730E-04
    1.78843858E-05  1.90247283E-05  2.61228437E-05  3.48886908E-05  3.32639147E-05  3.31256574E-05  3.38783891E-05  2.83228756E-05  2.77571643E-05  2.37220278E-05  2.15922937E-05  2.51663806E-05  2.39821754E-05  2.76878447E-05  2.97937910E-05  2.73497224E-05  3.42651619E-05  4.64472315E-05  5.15184490E-05  7.08160448E-05
    7.35814999E-05  7.98053967E-05  9.38918088E-05  9.54399127E-05  1.09054612E-04  1.28723915E-04  1.25908904E-04  1.43464496E-04  1.13605502E-04  8.89462685E-05  1.10222642E-04  1.37022363E-04  1.73670396E-04  2.20529738E-04  2.06019444E-04  2.37672240E-04  2.76174689E-04  2.99204902E-04  4.16729117E-04  5.51653170E-04
    7.65910882E-04  9.96070094E-04  7.46158134E-04  6.20739414E-04  7.07486308E-04  6.92427437E-04  7.79692191E-04  7.08830058E-04  6.37254059E-04  7.04934968E-04  6.74884117E-04  5.48128640E-04  5.16073940E-04  3.92596782E-04  3.98283732E-04  3.01973871E-04  1.82919081E-04  1.64457400E-04  1.90477679E-04  2.05948339E-04
    2.59894550E-04  2.62590679E-04  3.25243432E-04  4.60254055E-04  4.51358223E-04  4.53816839E-04  3.96001261E-04  3.74863348E-04  4.20021623E-04  3.70818161E-04  2.82872938E-04  3.52638389E-04  3.30166113E-04  3.42416675E-04  3.05949658E-04  2.93144871E-04  3.81543070E-04  5.56837861E-04  6.10901873E-04  7.63570470E-04
    7.34733079E-04  8.65330967E-04       0.00113068       0.00104883       0.00123046       0.00153039       0.00152193       0.00141429       0.00121008  9.46177864E-04       0.00108793  8.62482499E-04  7.39645573E-04  5.34563879E-04  3.86169698E-04  3.76536612E-04  4.52681955E-04  4.54450991E-04  6.85910304E-04  7.96666606E-04
    1.75687653E-05  2.06958808E-05  2.44607780E-05  3.04788091E-05  3.02848726E-05  3.28232091E-05  3.31395272E-05  2.57693731E-05  2.41415047E-05  2.42707548E-05  2.31562649E-05  2.54743972E-05  2.02298294E-05  2.29458813E-05  3.02262594E-05  3.07147422E-05  3.16180452E-05  3.77886162E-05  4.24091624E-05  6.62259586E-05
    7.33009558E-05  7.17752096E-05  8.26005525E-05  9.27494650E-05  1.12387904E-04  1.22132412E-04  1.03953719E-04  1.26079438E-04  1.33343258E-04  1.03363085E-04  1.01417831E-04  1.05783361E-04  1.43720606E-04  2.20847505E-04  2.21956242E-04  2.18956087E-04  2.47256921E-04  2.80792749E-04  4.10607608E-04  4.83913839E-04
    5.98889693E-04  9.17657367E-04  9.01947786E-04  6.86574634E-04  6.11627825E-04  5.21381475E-04  6.58954922E-04  7.41409802E-04  6.49540343E-04  6.18415616E-04  5.84056017E-04  5.37651907E-04  5.48949301E-04  3.85574112E-04  3.53670210E-04  3.32693476E-04  2.26797504E-04  1.77711936E-04  1.60322543E-04  1.63003147E-04
    2.34227563E-04  2.81638726E-04  3.05834747E-04  3.82173170E-04  3.74910265E-04  4.46110240E-04  4.20729194E-04  3.47800440E-04  3.54523305E-04  3.61326258E-04  2.89260302E-04  3.24647028E-04  2.75553795E-04  2.83934186E-04  3.05350194E-04  3.03462981E-04  3.43092165E-04  4.29621755E-04  5.08297524E-04  7.64199255E-04
    8.32914136E-04  8.05428834E-04  9.95628843E-04  9.63363371E-04       0.00119624       0.00145889       0.00144208       0.00138446       0.00140385       0.00110123       0.00111398  8.02750638E-04  7.46043596E-04  6.94147640E-04  5.11642028E-04  4.04355458E-04  4.20351261E-04  4.36005001E-04  6.96584113E-04  8.97356909E-04
    1.46676010E-05  1.82691907E-05  2.44146616E-05  3.35583128E-05  2.90588600E-05  2.76047167E-05  2.94013509E-05  2.68543014E-05  2.36473405E-05  2.14688099E-05  1.96768450E-05  2.64830662E-05  2.25289362E-05  2.07467175E-05  2.40434664E-05  2.79383891E-05  3.37230900E-05  4.06773562E-05  3.69464692E-05  4.99595087E-05
    6.56326201E-05  7.48816177E-05  8.47876039E-05  8.09870915E-05  9.74265871E-05  1.24666147E-04  1.10082529E-04  1.10553817E-04  1.18458684E-04  1.03740090E-04  1.15316331E-04  1.08656388E-04  1.15421635E-04  1.66198127E-04  2.10869658E-04  2.41295675E-04  2.59909305E-04  2.40054999E-04  3.43272667E-04  4.65493721E-04
    5.69734528E-04  8.09642276E-04  8.50175126E-04  7.24885706E-04  6.86617274E-04  5.10265163E-04  5.01342578E-04  5.74672355E-04  6.08620248E-04  6.71359753E-04  5.78180972E-04  4.51082756E-04  4.72924926E-04  3.98369438E-04  3.63535360E-04  3.44383475E-04  2.31899545E-04  1.90879814E-04  1.74442455E-04  1.56024492E-04
    1.84419922E-04  2.33785063E-04  2.95812066E-04  4.17268113E-04  3.61642095E-04  3.65935185E-04  3.75004915E-04  3.55094541E-04  3.68086040E-04  3.51384616E-04  2.57650217E-04  2.92022062E-04  2.78096510E-04  2.60866479E-04  2.56746284E-04  2.51187884E-04  3.28105709E-04  4.27159635E-04  4.43677373E-04  5.84657178E-04
    7.65575851E-04  8.48407542E-04       0.00109816  9.07024802E-04  9.74211260E-04       0.00130020       0.00155443       0.00147946       0.00138378       0.00108938       0.00124878  9.52445622E-04  7.32869547E-04  6.70258388E-04  5.72689685E-04  5.26526092E-04  5.06865959E-04  4.17418520E-04  5.57702717E-04  9.09411631E-04
    1.66500856E-05  1.73113981E-05  1.91009503E-05  3.07405608E-05  3.27772821E-05  3.04480159E-05  2.60083614E-05  2.23347260E-05  2.17007902E-05  2.24734660E-05  1.82472238E-05  2.26010272E-05  2.14078676E-05  2.12298308E-05  2.40396613E-05  2.45457946E-05  2.77668810E-05  3.88928360E-05  4.10570432E-05  4.86407244E-05
    5.49221368E-05  6.01082487E-05  8.38056424E-05  8.81320462E-05  9.53262851E-05  1.10064290E-04  1.03213741E-04  1.08120552E-04  1.23740423E-04  9.83763162E-05  1.04462125E-04  1.08444048E-04  1.19876851E-04  1.51324832E-04  1.68561474E-04  1.98602684E-04  2.67970286E-04  2.65347650E-04  3.21229299E-04  3.87379418E-04
    4.65996618E-04  7.65732005E-04  9.18277075E-04  7.42617997E-04  6.55303077E-04  5.20352219E-04  4.96679273E-04  5.13542601E-04  4.64526928E-04  5.55302206E-04  5.95469032E-04  4.91664227E-04  4.37863739E-04  3.32166892E-04  3.05576796E-04  3.71157656E-04  2.78804470E-04  2.00814015E-04  1.64123564E-04  1.52521069E-04
    1.83196565E-04  2.13120888E-04  2.35855561E-04  3.69621231E-04  3.98823165E-04  3.99651261E-04  3.55723149E-04  2.89619348E-04  3.27468408E-04  3.93840057E-04  2.95335620E-04  2.61879701E-04  2.35088410E-04  2.36174590E-04  2.61088536E-04  2.23322816E-04  2.55901060E-04  3.57812348E-04  4.38413222E-04  5.55139729E-04
    6.61609836E-04  6.71355763E-04       0.00104468       0.00106498       0.00101707       0.00108230       0.00128786       0.00152394       0.00164550       0.00117519       0.00116944       0.00100404  8.24355024E-04  7.67277191E-04  5.77949577E-04  5.21770756E-04  5.80499290E-04  5.31995974E-04  5.54705146E-04  7.73683219E-04
    1.71944513E-05  1.97210340E-05  1.91235099E-05  2.63946788E-05  2.81266486E-05  3.13229189E-05  3.01001854E-05  2.33121985E-05  1.81024477E-05  1.85239022E-05  1.67901767E-05  2.26020107E-05  2.16127256E-05  1.85577915E-05  2.15131441E-05  2.43935892E-05  2.71612491E-05  3.35947893E-05  3.62037095E-05  4.70815009E-05
    6.03920447E-05  5.70969269E-05  7.02202950E-05  7.61161333E-05  9.68138805E-05  1.23431475E-04  1.07229137E-04  9.08698496E-05  1.11597859E-04  1.04671911E-04  1.10845953E-04  1.01774263E-04  1.03506854E-04  1.42568403E-04  1.69663775E-04  1.77585989E-04  2.17216306E-04  2.34201476E-04  3.24900353E-04  4.24793020E-04
    4.07854393E-04  5.72219503E-04  8.16957930E-04  8.59156776E-04  7.59966445E-04  5.19750889E-04  4.30624840E-04  4.87801094E-04  4.45150222E-04  4.76376945E-04  4.83732283E-04  4.44790204E-04  4.66846364E-04  3.62153072E-04  2.54940605E-04  2.88253182E-04  2.79080692E-04  2.48053404E-04  1.92272442E-04  1.41290029E-04
    1.54668765E-04  2.00818162E-04  2.29874198E-04  3.30975548E-04  3.58365301E-04  3.88756783E-04  4.14331422E-04  3.09726185E-04  2.76617614E-04  3.28461076E-04  3.17331920E-04  3.09862530E-04  2.50937273E-04  1.95438627E-04  2.16757427E-04  2.07051538E-04  2.40494511E-04  3.04747661E-04  3.51864075E-04  4.71705669E-04
    6.61858830E-04  6.28840576E-04  8.44874952E-04  9.43768495E-04       0.00105867       0.00120665       0.00123192       0.00129419       0.00153156       0.00134360       0.00135942       0.00110967  7.79364145E-04  7.93021405E-04  6.73299821E-04  5.85738662E-04  5.76047491E-04  5.52047478E-04  5.99046860E-04  8.53665090E-04
    1.89087855E-05  1.93219849E-05  1.81843076E-05  2.67625683E-05  2.81425698E-05  2.82959020E-05  2.82023580E-05  2.54311675E-05  2.04766037E-05  1.78475083E-05  1.30501631E-05  1.73343486E-05  2.26048295E-05  2.06018804E-05  2.04292765E-05  1.99636502E-05  2.39348140E-05  3.31271874E-05  3.63095217E-05  4.03926007E-05
    5.48889648E-05  5.81343512E-05  7.62095754E-05  7.22207358E-05  7.80613606E-05  1.11793865E-04  1.27533446E-04  1.03663397E-04  1.02391662E-04  8.82363265E-05  1.04551456E-04  1.14039934E-04  1.05123197E-04  1.23074304E-04  1.43959625E-04  1.68866953E-04  2.14608479E-04  2.09428896E-04  2.51598747E-04  3.95730150E-04
    4.35824059E-04  5.51781672E-04  6.62915553E-04  7.26877506E-04  8.00997036E-04  6.53382834E-04  4.61705256E-04  4.31736170E-04  3.71779460E-04  4.33671139E-04  4.75298999E-04  3.96535875E-04  3.95423364E-04  3.62052643E-04  2.69965173E-04  2.67233367E-04  2.35208267E-04  2.20890512E-04  2.17366418E-04  1.70597295E-04
    1.57040462E-04  1.66703786E-04  1.86495156E-04  3.06434462E-04  3.83447729E-04  3.74703419E-04  3.99435239E-04  3.26489272E-04  2.96879140E-04  3.18533450E-04  2.89346184E-04  2.93438147E-04  2.87989380E-04  2.23510266E-04  2.09159140E-04  1.64575584E-04  1.85040928E-04  2.78452697E-04  3.42821820E-04  3.97726205E-04
    5.33336422E-04  5.55868024E-04  7.87702306E-04  9.00836349E-04  9.18007884E-04       0.00110894       0.00127797       0.00141655       0.00149342       0.00120982       0.00129550       0.00139223  9.56199662E-04  8.14533758E-04  6.35317365E-04  6.08280413E-04  6.67345274E-04  6.32244039E-04  5.77208117E-04  8.07194113E-04
    2.28499720E-05  2.41085182E-05  1.80634470E-05  2.24326223E-05  2.64025394E-05  2.97446769E-05  2.97524404E-05  2.42519104E-05  1.99793668E-05  1.96599718E-05  1.39398732E-05  1.37311878E-05  1.76261295E-05  1.89898486E-05  2.31993807E-05  2.13063797E-05  2.06240777E-05  2.56485653E-05  3.33192228E-05  4.08597654E-05
    5.53190187E-05  5.19619068E-05  7.06085638E-05  7.82930857E-05  7.97450087E-05  9.78854009E-05  1.14813461E-04  1.09308781E-04  1.19045254E-04  9.51430775E-05  8.96718022E-05  9.89538332E-05  1.02745564E-04  1.33531315E-04  1.40603637E-04  1.40851222E-04  1.79943553E-04  2.06140546E-04  2.31623794E-04  3.40655302E-04
    3.69754329E-04  5.09256943E-04  6.65943401E-04  7.00191159E-04  7.03568820E-04  6.26616821E-04  5.13016392E-04  5.10197782E-04  3.70268775E-04  3.40102862E-04  3.96797053E-04  3.86004864E-04  3.98888389E-04  3.46552805E-04  2.43708972E-04  2.44544478E-04  2.38636401E-04  2.10535071E-04  1.98756000E-04  1.62941311E-04
    1.73246079E-04  1.87344036E-04  1.68657852E-04  2.25249398E-04  3.31855695E-04  3.95783471E-04  4.61918434E-04  3.42965581E-04  2.74964877E-04  3.08352460E-04  3.14976205E-04  3.04676116E-04  2.80664496E-04  2.22943281E-04  2.36193600E-04  1.82788667E-04  1.51270096E-04  1.96963605E-04  2.79980882E-04  3.91270105E-04
    5.27151531E-04  4.72186985E-04  5.85578781E-04  8.00898642E-04  9.18510807E-04       0.00108459       0.00111216       0.00131661       0.00165234       0.00137846       0.00118110       0.00129629       0.00106651       0.00105054  7.61934191E-04  5.77862834E-04  6.02647288E-04  6.92405289E-04  6.92412384E-04  8.45655623E-04
    2.02432904E-05  2.57994289E-05  2.23947033E-05  2.39644889E-05  2.33923685E-05  2.43348657E-05  2.99805571E-05  2.79726319E-05  2.15849165E-05  1.89686044E-05  1.40372050E-05  1.31124062E-05  1.66724078E-05  1.61147398E-05  2.02181363E-05  2.16984996E-05  2.30538401E-05  2.47310168E-05  2.67453240E-05  3.15187190E-05
    5.34976354E-05  5.76423025E-05  7.06956078E-05  7.37900839E-05  7.37989991E-05  9.74949638E-05  1.18740412E-04  1.06843190E-04  1.11812149E-04  1.03614363E-04  9.95644588E-05  1.00895933E-04  8.45393063E-05  1.12857373E-04  1.44680396E-04  1.54227240E-04  1.65261222E-04  1.70088289E-04  1.86369133E-04  3.19130907E-04
    3.64460005E-04  4.37252167E-04  5.48815511E-04  6.57278287E-04  7.49790041E-04  6.41662403E-04  4.62666006E-04  4.89471247E-04  4.29992365E-04  3.64415862E-04  3.54078793E-04  2.99965736E-04  3.45191820E-04  3.77010083E-04  2.72642196E-04  2.17198830E-04  2.00786723E-04  1.96328518E-04  2.14819092E-04  1.62348396E-04
    1.53454068E-04  1.81742388E-04  1.84344360E-04  2.17710310E-04  2.73786980E-04  3.09150478E-04  4.51127231E-04  4.35660289E-04  3.21949435E-04  2.84980312E-04  2.77078343E-04  3.16020683E-04  3.32512693E-04  2.40066706E-04  2.25903558E-04  1.93309915E-04  1.58120079E-04  1.79227060E-04  2.10240867E-04  2.88570341E-04
    4.79421149E-04  5.16254832E-04  5.34346070E-04  6.13827568E-04  7.02077174E-04       0.00103913       0.00117488       0.00125024       0.00149443       0.00142536       0.00127984       0.00138532       0.00104966       0.00104998  9.32584807E-04  7.32254330E-04  6.39570570E-04  6.18622782E-04  6.54491578E-04  9.44181094E-04
    2.07322807E-05  2.39758124E-05  2.13847856E-05  2.50329306E-05  2.72934776E-05  2.35047664E-05  2.51705840E-05  2.49619601E-05  2.38679452E-05  2.29878869E-05  1.58175778E-05  1.13355692E-05  1.45375017E-05  1.58050240E-05  2.02941966E-05  2.00933616E-05  2.10513655E-05  2.53198588E-05  2.84506959E-05  2.74182938E-05