# File generated by Flopy version 3.6.0 on 04/11/2024 at 11:27:17.
BEGIN options
  PRINT_OPTION  summary
  COMPLEXITY  complex
END options

BEGIN linear
  LINEAR_ACCELERATION  bicgstab
END linear

