# File generated by Flopy version 3.7.0 on 06/19/2024 at 15:23:10.
BEGIN options
END options

BEGIN dimensions
  MAXBOUND  7355
END dimensions

BEGIN period  1
  1 1 1.68499792E-08
  1 2 1.53524173E-08
  1 3 1.44636599E-08
  1 4 1.39005972E-08
  1 5 1.37321989E-08
  1 6 1.33758184E-08
  1 7 1.30043215E-08
  1 8 1.24283454E-08
  1 9 1.22191809E-08
  1 10 1.20370981E-08
  1 11 1.14288500E-08
  1 12 1.10986666E-08
  1 13 1.10473746E-08
  1 14 1.11095577E-08
  1 15 1.08027899E-08
  1 16 1.05190128E-08
  1 17 1.03423557E-08
  1 18 1.03024890E-08
  1 19 1.05063956E-08
  1 20 1.09220418E-08
  1 21 1.13166658E-08
  1 22 1.18248443E-08
  1 23 1.23328222E-08
  1 24 1.31673559E-08
  1 25 1.36570076E-08
  1 26 1.37889677E-08
  1 27 1.39516942E-08
  1 28 1.38094125E-08
  1 29 1.34936745E-08
  1 30 1.34055094E-08
  1 31 1.34725172E-08
  1 32 1.33578184E-08
  1 33 1.36026989E-08
  1 34 1.41675901E-08
  1 35 1.44480610E-08
  1 36 1.47632987E-08
  1 37 1.49028464E-08
  1 38 1.51532976E-08
  1 39 1.58698033E-08
  1 40 1.67870612E-08
  1 41 1.74702460E-08
  1 42 1.80926373E-08
  1 43 1.89241513E-08
  1 44 1.99041547E-08
  1 45 2.06625690E-08
  1 46 2.03129481E-08
  1 47 2.02160226E-08
  1 48 2.02761955E-08
  1 49 2.01214781E-08
  1 50 1.92437061E-08
  1 51 1.86720938E-08
  1 52 1.78865570E-08
  1 53 1.78015948E-08
  1 54 1.74959835E-08
  1 55 1.71548191E-08
  1 56 1.70063790E-08
  1 57 1.70369830E-08
  1 58 1.74551137E-08
  1 59 1.76562776E-08
  1 60 1.79226397E-08
  1 61 1.84341756E-08
  1 62 1.91543694E-08
  1 63 1.96860474E-08
  1 64 2.02170788E-08
  1 65 2.10015167E-08
  1 66 2.16423440E-08
  1 67 2.21435820E-08
  1 68 2.24786296E-08
  1 69 2.24862477E-08
  1 70 2.20533005E-08
  1 71 2.11328771E-08
  1 72 2.02856087E-08
  1 73 1.92663188E-08
  1 74 1.78225567E-08
  1 75 1.68694249E-08
  1 76 1.59500708E-08
  1 77 1.55285625E-08
  1 78 1.50671795E-08
  1 79 1.45411710E-08
  1 80 1.42783714E-08
  1 81 1.36693734E-08
  1 82 1.32081234E-08
  1 83 1.30575892E-08
  1 84 1.30162573E-08
  1 85 1.29243264E-08
  1 86 1.28860663E-08
  1 87 1.30740768E-08
  1 88 1.33067437E-08
  1 89 1.37561723E-08
  1 90 1.45002937E-08
  1 91 1.50361537E-08
  1 92 1.58667985E-08
  1 93 1.70821847E-08
  1 94 1.83739560E-08
  1 95 1.88833049E-08
  1 96 1.96893843E-08
  1 97 2.06892086E-08
  1 98 2.15909952E-08
  1 99 2.25143493E-08
  1 100 2.28294336E-08
  1 101 1.66774562E-08
  1 102 1.57208735E-08
  1 103 1.48948023E-08
  1 104 1.42801413E-08
  1 105 1.41166093E-08
  1 106 1.38983941E-08
  1 107 1.34072457E-08
  1 108 1.28314384E-08
  1 109 1.23818612E-08
  1 110 1.19424667E-08
  1 111 1.13776024E-08
  1 112 1.09403359E-08
  1 113 1.07870971E-08
  1 114 1.08670608E-08
  1 115 1.07116955E-08
  1 116 1.04971137E-08
  1 117 1.02960600E-08
  1 118 1.00451560E-08
  1 119 1.03003854E-08
  1 120 1.06306904E-08
  1 121 1.09539465E-08
  1 122 1.14574905E-08
  1 123 1.17371016E-08
  1 124 1.24096679E-08
  1 125 1.29163091E-08
  1 126 1.30924747E-08
  1 127 1.31452001E-08
  1 128 1.31202795E-08
  1 129 1.30763713E-08
  1 130 1.31438946E-08
  1 131 1.31611669E-08
  1 132 1.32033123E-08
  1 133 1.31986423E-08
  1 134 1.38214738E-08
  1 135 1.41851843E-08
  1 136 1.42302008E-08
  1 137 1.44370666E-08
  1 138 1.49000449E-08
  1 139 1.57329093E-08
  1 140 1.65815028E-08
  1 141 1.69524047E-08
  1 142 1.76732302E-08
  1 143 1.82802517E-08
  1 144 1.90517054E-08
  1 145 1.99212927E-08
  1 146 1.99623007E-08
  1 147 1.99394476E-08
  1 148 2.00316780E-08
  1 149 1.99282324E-08
  1 150 1.93643574E-08
  1 151 1.87686495E-08
  1 152 1.82251128E-08
  1 153 1.78552105E-08
  1 154 1.71390303E-08
  1 155 1.68635224E-08
  1 156 1.67334969E-08
  1 157 1.65400920E-08
  1 158 1.68856759E-08
  1 159 1.71656652E-08
  1 160 1.73809836E-08
  1 161 1.77392790E-08
  1 162 1.83335027E-08
  1 163 1.89930995E-08
  1 164 1.94984703E-08
  1 165 1.99840260E-08
  1 166 2.07700550E-08
  1 167 2.14262449E-08
  1 168 2.17208233E-08
  1 169 2.16562694E-08
  1 170 2.11492467E-08
  1 171 2.04580507E-08
  1 172 1.95581264E-08
  1 173 1.87522244E-08
  1 174 1.75684419E-08
  1 175 1.70422497E-08
  1 176 1.63830088E-08
  1 177 1.60579902E-08
  1 178 1.55193504E-08
  1 179 1.49371274E-08
  1 180 1.44554903E-08
  1 181 1.39006232E-08
  1 182 1.33607520E-08
  1 183 1.30634695E-08
  1 184 1.30462433E-08
  1 185 1.29857294E-08
  1 186 1.29406307E-08
  1 187 1.32102823E-08
  1 188 1.33494959E-08
  1 189 1.35568985E-08
  1 190 1.43214907E-08
  1 191 1.50217541E-08
  1 192 1.58362378E-08
  1 193 1.69112830E-08
  1 194 1.81096162E-08
  1 195 1.85277880E-08
  1 196 1.92684506E-08
  1 197 2.02060435E-08
  1 198 2.11063340E-08
  1 199 2.17947824E-08
  1 200 2.21115094E-08
  1 201 1.69603204E-08
  1 202 1.63841319E-08
  1 203 1.57517612E-08
  1 204 1.49232164E-08
  1 205 1.47002253E-08
  1 206 1.47863732E-08
  1 207 1.44429991E-08
  1 208 1.37439161E-08
  1 209 1.29418292E-08
  1 210 1.22991006E-08
  1 211 1.16578498E-08
  1 212 1.12257328E-08
  1 213 1.08943509E-08
  1 214 1.08494874E-08
  1 215 1.07791200E-08
  1 216 1.06987379E-08
  1 217 1.05176009E-08
  1 218 1.01578173E-08
  1 219 1.03303105E-08
  1 220 1.07029046E-08
  1 221 1.09732931E-08
  1 222 1.15153947E-08
  1 223 1.16520426E-08
  1 224 1.21320478E-08
  1 225 1.26738360E-08
  1 226 1.29245148E-08
  1 227 1.28701498E-08
  1 228 1.30055174E-08
  1 229 1.32377792E-08
  1 230 1.33398752E-08
  1 231 1.32538625E-08
  1 232 1.31788447E-08
  1 233 1.30889439E-08
  1 234 1.36307212E-08
  1 235 1.39443466E-08
  1 236 1.41497259E-08
  1 237 1.43462055E-08
  1 238 1.46196937E-08
  1 239 1.54497579E-08
  1 240 1.63517539E-08
  1 241 1.68147206E-08
  1 242 1.75703666E-08
  1 243 1.85699772E-08
  1 244 1.93349642E-08
  1 245 1.98905404E-08
  1 246 2.03169734E-08
  1 247 2.06517542E-08
  1 248 2.07889492E-08
  1 249 2.08447464E-08
  1 250 2.04632884E-08
  1 251 1.97529541E-08
  1 252 1.92739991E-08
  1 253 1.86141474E-08
  1 254 1.77734394E-08
  1 255 1.71952638E-08
  1 256 1.68715872E-08
  1 257 1.66732360E-08
  1 258 1.68319256E-08
  1 259 1.71099495E-08
  1 260 1.76348231E-08
  1 261 1.80211345E-08
  1 262 1.82704071E-08
  1 263 1.87966896E-08
  1 264 1.93645302E-08
  1 265 1.99519775E-08
  1 266 2.07667754E-08
  1 267 2.12381638E-08
  1 268 2.13235644E-08
  1 269 2.10891691E-08
  1 270 2.06365193E-08
  1 271 2.02492868E-08
  1 272 1.93639629E-08
  1 273 1.85130080E-08
  1 274 1.77851636E-08
  1 275 1.73108959E-08
  1 276 1.68287443E-08
  1 277 1.66834560E-08
  1 278 1.60576028E-08
  1 279 1.53581914E-08
  1 280 1.49052049E-08
  1 281 1.44177355E-08
  1 282 1.37844495E-08
  1 283 1.32698726E-08
  1 284 1.31641797E-08
  1 285 1.30470034E-08
  1 286 1.28679543E-08
  1 287 1.28758029E-08
  1 288 1.30624126E-08
  1 289 1.34609459E-08
  1 290 1.40007582E-08
  1 291 1.49029931E-08
  1 292 1.54632298E-08
  1 293 1.64038072E-08
  1 294 1.74598315E-08
  1 295 1.79586371E-08
  1 296 1.85618823E-08
  1 297 1.95792439E-08
  1 298 2.04766526E-08
  1 299 2.08342499E-08
  1 300 2.11523248E-08
  1 301 1.71732489E-08
  1 302 1.66710835E-08
  1 303 1.63003899E-08
  1 304 1.55891669E-08
  1 305 1.52391930E-08
  1 306 1.53838433E-08
  1 307 1.51371380E-08
  1 308 1.45080473E-08
  1 309 1.35375967E-08
  1 310 1.27116734E-08
  1 311 1.19664987E-08
  1 312 1.13762901E-08
  1 313 1.07535533E-08
  1 314 1.06381570E-08
  1 315 1.05341261E-08
  1 316 1.04598545E-08
  1 317 1.03654768E-08
  1 318 1.01169433E-08
  1 319 1.02617870E-08
  1 320 1.05465005E-08
  1 321 1.08712298E-08
  1 322 1.12948460E-08
  1 323 1.14600929E-08
  1 324 1.16938218E-08
  1 325 1.21432546E-08
  1 326 1.23940887E-08
  1 327 1.24383384E-08
  1 328 1.26952010E-08
  1 329 1.29873775E-08
  1 330 1.29858991E-08
  1 331 1.29356849E-08
  1 332 1.28551067E-08
  1 333 1.26561265E-08
  1 334 1.29458847E-08
  1 335 1.31293933E-08
  1 336 1.33550870E-08
  1 337 1.37877756E-08
  1 338 1.40444938E-08
  1 339 1.47050456E-08
  1 340 1.55906557E-08
  1 341 1.62996087E-08
  1 342 1.71048524E-08
  1 343 1.81762543E-08
  1 344 1.93224263E-08
  1 345 1.96472730E-08
  1 346 1.98632257E-08
  1 347 2.04174803E-08
  1 348 2.08220329E-08
  1 349 2.09855059E-08
  1 350 2.09499598E-08
  1 351 2.06116344E-08
  1 352 2.00081276E-08
  1 353 1.92384086E-08
  1 354 1.80729312E-08
  1 355 1.72630452E-08
  1 356 1.65743345E-08
  1 357 1.62542819E-08
  1 358 1.64511499E-08
  1 359 1.68069006E-08
  1 360 1.74095850E-08
  1 361 1.80639857E-08
  1 362 1.81050559E-08
  1 363 1.84489592E-08
  1 364 1.89589182E-08
  1 365 1.94695434E-08
  1 366 2.00952463E-08
  1 367 2.07514108E-08
  1 368 2.08733562E-08
  1 369 2.06282489E-08
  1 370 2.00004893E-08
  1 371 1.98536225E-08
  1 372 1.93338074E-08
  1 373 1.87390619E-08
  1 374 1.79188426E-08
  1 375 1.74625246E-08
  1 376 1.72010053E-08
  1 377 1.68940368E-08
  1 378 1.66444729E-08
  1 379 1.60025767E-08
  1 380 1.54863625E-08
  1 381 1.50529970E-08
  1 382 1.43180119E-08
  1 383 1.35522536E-08
  1 384 1.32248519E-08
  1 385 1.30093814E-08
  1 386 1.28281362E-08
  1 387 1.27791501E-08
  1 388 1.28003181E-08
  1 389 1.30996801E-08
  1 390 1.38760619E-08
  1 391 1.47410851E-08
  1 392 1.53230453E-08
  1 393 1.61300390E-08
  1 394 1.69562727E-08
  1 395 1.77599795E-08
  1 396 1.84436852E-08
  1 397 1.92766227E-08
  1 398 2.00455351E-08
  1 399 2.05606168E-08
  1 400 2.04955594E-08
  1 401 1.77403770E-08
  1 402 1.71757471E-08
  1 403 1.66719495E-08
  1 404 1.62734463E-08
  1 405 1.61411467E-08
  1 406 1.59673763E-08
  1 407 1.56750877E-08
  1 408 1.51401440E-08
  1 409 1.42484796E-08
  1 410 1.33285119E-08
  1 411 1.24643633E-08
  1 412 1.16598320E-08
  1 413 1.08509289E-08
  1 414 1.04308784E-08
  1 415 1.03246856E-08
  1 416 1.02649619E-08
  1 417 1.02316106E-08
  1 418 1.01508397E-08
  1 419 1.02609604E-08
  1 420 1.04016894E-08
  1 421 1.07374757E-08
  1 422 1.11237496E-08
  1 423 1.12891207E-08
  1 424 1.14238080E-08
  1 425 1.17067880E-08
  1 426 1.19149287E-08
  1 427 1.21319828E-08
  1 428 1.26628471E-08
  1 429 1.28672648E-08
  1 430 1.26414878E-08
  1 431 1.25246687E-08
  1 432 1.24057563E-08
  1 433 1.24593650E-08
  1 434 1.25430902E-08
  1 435 1.24675852E-08
  1 436 1.26123288E-08
  1 437 1.30687552E-08
  1 438 1.34663295E-08
  1 439 1.41809378E-08
  1 440 1.48360221E-08
  1 441 1.57536189E-08
  1 442 1.66927387E-08
  1 443 1.78706407E-08
  1 444 1.89495262E-08
  1 445 1.94525632E-08
  1 446 1.95674689E-08
  1 447 2.00587458E-08
  1 448 2.08602529E-08
  1 449 2.12120924E-08
  1 450 2.11750972E-08
  1 451 2.12402998E-08
  1 452 2.06352270E-08
  1 453 1.98885950E-08
  1 454 1.84592081E-08
  1 455 1.74244219E-08
  1 456 1.65895057E-08
  1 457 1.62170218E-08
  1 458 1.62786851E-08
  1 459 1.67995513E-08
  1 460 1.75648718E-08
  1 461 1.82025799E-08
  1 462 1.82919682E-08
  1 463 1.83606251E-08
  1 464 1.87043622E-08
  1 465 1.91059925E-08
  1 466 1.94977804E-08
  1 467 2.00020203E-08
  1 468 2.02316957E-08
  1 469 1.99536869E-08
  1 470 1.96345514E-08
  1 471 1.94334962E-08
  1 472 1.92099924E-08
  1 473 1.89687918E-08
  1 474 1.82664408E-08
  1 475 1.77984383E-08
  1 476 1.76906102E-08
  1 477 1.74732362E-08
  1 478 1.71336955E-08
  1 479 1.65912316E-08
  1 480 1.60914093E-08
  1 481 1.55833720E-08
  1 482 1.47483996E-08
  1 483 1.39208430E-08
  1 484 1.32265600E-08
  1 485 1.27489105E-08
  1 486 1.25339848E-08
  1 487 1.25291894E-08
  1 488 1.24893420E-08
  1 489 1.27744941E-08
  1 490 1.34159445E-08
  1 491 1.44621521E-08
  1 492 1.50643332E-08
  1 493 1.57621282E-08
  1 494 1.62340054E-08
  1 495 1.73095090E-08
  1 496 1.80058613E-08
  1 497 1.86324114E-08
  1 498 1.92729864E-08
  1 499 1.97175470E-08
  1 500 1.95899330E-08
  1 501 1.77216363E-08
  1 502 1.74709009E-08
  1 503 1.70579529E-08
  1 504 1.67982745E-08
  1 505 1.66117828E-08
  1 506 1.64314388E-08
  1 507 1.62901374E-08
  1 508 1.57989434E-08
  1 509 1.50740684E-08
  1 510 1.42811313E-08
  1 511 1.31115333E-08
  1 512 1.20023813E-08
  1 513 1.10989316E-08
  1 514 1.04925713E-08
  1 515 1.01716759E-08
  1 516 1.02050267E-08
  1 517 1.03436053E-08
  1 518 1.04295875E-08
  1 519 1.05225726E-08
  1 520 1.06620052E-08
  1 521 1.08427716E-08
  1 522 1.11767587E-08
  1 523 1.14901210E-08
  1 524 1.14451058E-08
  1 525 1.16248220E-08
  1 526 1.16110155E-08
  1 527 1.21048693E-08
  1 528 1.25854745E-08
  1 529 1.27574842E-08
  1 530 1.25988190E-08
  1 531 1.24267543E-08
  1 532 1.23701613E-08
  1 533 1.22839179E-08
  1 534 1.21789633E-08
  1 535 1.19552628E-08
  1 536 1.20326220E-08
  1 537 1.24769083E-08
  1 538 1.29717752E-08
  1 539 1.34875772E-08
  1 540 1.42816717E-08
  1 541 1.50971192E-08
  1 542 1.61198287E-08
  1 543 1.73361196E-08
  1 544 1.85014897E-08
  1 545 1.92619117E-08
  1 546 1.94064890E-08
  1 547 1.96190546E-08
  1 548 2.00803546E-08
  1 549 2.07783149E-08
  1 550 2.12582198E-08
  1 551 2.14855124E-08
  1 552 2.10297416E-08
  1 553 2.04976814E-08
  1 554 1.90618045E-08
  1 555 1.77975284E-08
  1 556 1.67649938E-08
  1 557 1.63462166E-08
  1 558 1.63534438E-08
  1 559 1.66006970E-08
  1 560 1.74107970E-08
  1 561 1.80329917E-08
  1 562 1.81953934E-08
  1 563 1.83332177E-08
  1 564 1.85630417E-08
  1 565 1.90850974E-08
  1 566 1.92217105E-08
  1 567 1.96341461E-08
  1 568 1.95697204E-08
  1 569 1.94864593E-08
  1 570 1.93941579E-08
  1 571 1.92229020E-08
  1 572 1.89564675E-08
  1 573 1.87356250E-08
  1 574 1.85503575E-08
  1 575 1.83724332E-08
  1 576 1.82728424E-08
  1 577 1.81820151E-08
  1 578 1.79795651E-08
  1 579 1.74644350E-08
  1 580 1.68988034E-08
  1 581 1.61611928E-08
  1 582 1.53472694E-08
  1 583 1.43775458E-08
  1 584 1.36025981E-08
  1 585 1.31035714E-08
  1 586 1.26475406E-08
  1 587 1.25706358E-08
  1 588 1.25631461E-08
  1 589 1.27167793E-08
  1 590 1.32427475E-08
  1 591 1.43808701E-08
  1 592 1.49753692E-08
  1 593 1.55878724E-08
  1 594 1.61137305E-08
  1 595 1.71735025E-08
  1 596 1.76958034E-08
  1 597 1.81999639E-08
  1 598 1.87563124E-08
  1 599 1.89924771E-08
  1 600 1.89687372E-08
  1 601 1.78449923E-08
  1 602 1.77289472E-08
  1 603 1.79676924E-08
  1 604 1.79111420E-08
  1 605 1.77050087E-08
  1 606 1.72470616E-08
  1 607 1.70311850E-08
  1 608 1.67383317E-08
  1 609 1.61543675E-08
  1 610 1.53789862E-08
  1 611 1.39555484E-08
  1 612 1.27567738E-08
  1 613 1.16408890E-08
  1 614 1.07701313E-08
  1 615 1.02633365E-08
  1 616 1.02986996E-08
  1 617 1.04929330E-08
  1 618 1.07175818E-08
  1 619 1.08976220E-08
  1 620 1.11093634E-08
  1 621 1.11777901E-08
  1 622 1.12648340E-08
  1 623 1.14999448E-08
  1 624 1.15134226E-08
  1 625 1.16993443E-08
  1 626 1.16506098E-08
  1 627 1.19759853E-08
  1 628 1.25785807E-08
  1 629 1.28053672E-08
  1 630 1.25886681E-08
  1 631 1.24777270E-08
  1 632 1.23353143E-08
  1 633 1.19560037E-08
  1 634 1.17095524E-08
  1 635 1.13963189E-08
  1 636 1.13370116E-08
  1 637 1.17517314E-08
  1 638 1.23097539E-08
  1 639 1.28530428E-08
  1 640 1.34033368E-08
  1 641 1.41695474E-08
  1 642 1.52041278E-08
  1 643 1.63738819E-08
  1 644 1.76081803E-08
  1 645 1.85825062E-08
  1 646 1.89294806E-08
  1 647 1.90325471E-08
  1 648 1.91207645E-08
  1 649 1.97352809E-08
  1 650 2.05168734E-08
  1 651 2.09409333E-08
  1 652 2.07490991E-08
  1 653 2.02950518E-08
  1 654 1.93037737E-08
  1 655 1.78186960E-08
  1 656 1.68036423E-08
  1 657 1.62800464E-08
  1 658 1.60746326E-08
  1 659 1.60325326E-08
  1 660 1.67906635E-08
  1 661 1.74841838E-08
  1 662 1.78007650E-08
  1 663 1.80219652E-08
  1 664 1.81565076E-08
  1 665 1.83500778E-08
  1 666 1.86126927E-08
  1 667 1.86883511E-08
  1 668 1.86734588E-08
  1 669 1.84945609E-08
  1 670 1.83962512E-08
  1 671 1.84367828E-08
  1 672 1.83035216E-08
  1 673 1.83482437E-08
  1 674 1.84366131E-08
  1 675 1.86804579E-08
  1 676 1.84456460E-08
  1 677 1.82760640E-08
  1 678 1.81240338E-08
  1 679 1.78018868E-08
  1 680 1.72066482E-08
  1 681 1.65118263E-08
  1 682 1.56561348E-08
  1 683 1.44836704E-08
  1 684 1.37974216E-08
  1 685 1.32961120E-08
  1 686 1.27036009E-08
  1 687 1.23742140E-08
  1 688 1.23075206E-08
  1 689 1.25681745E-08
  1 690 1.30160533E-08
  1 691 1.40193178E-08
  1 692 1.49266054E-08
  1 693 1.52406768E-08
  1 694 1.57398827E-08
  1 695 1.65207224E-08
  1 696 1.69228612E-08
  1 697 1.74849715E-08
  1 698 1.79389523E-08
  1 699 1.81360475E-08
  1 700 1.79460440E-08
  1 701 1.72902250E-08
  1 702 1.74188203E-08
  1 703 1.79098614E-08
  1 704 1.79216564E-08
  1 705 1.77553946E-08
  1 706 1.74495810E-08
  1 707 1.72112837E-08
  1 708 1.68310489E-08
  1 709 1.65207715E-08
  1 710 1.59003378E-08
  1 711 1.43656488E-08
  1 712 1.31264835E-08
  1 713 1.18854763E-08
  1 714 1.10854531E-08
  1 715 1.04104538E-08
  1 716 1.04124334E-08
  1 717 1.06788218E-08
  1 718 1.08017660E-08
  1 719 1.12240351E-08
  1 720 1.15893549E-08
  1 721 1.16152466E-08
  1 722 1.14621398E-08
  1 723 1.14502928E-08
  1 724 1.14524726E-08
  1 725 1.16894223E-08
  1 726 1.18944654E-08
  1 727 1.21093247E-08
  1 728 1.27084777E-08
  1 729 1.30120795E-08
  1 730 1.27809295E-08
  1 731 1.24134679E-08
  1 732 1.24154535E-08
  1 733 1.19690254E-08
  1 734 1.15193582E-08
  1 735 1.10141737E-08
  1 736 1.08408542E-08
  1 737 1.10341229E-08
  1 738 1.17928245E-08
  1 739 1.24167876E-08
  1 740 1.29204757E-08
  1 741 1.35045980E-08
  1 742 1.44732541E-08
  1 743 1.56336133E-08
  1 744 1.68149103E-08
  1 745 1.78386648E-08
  1 746 1.84504938E-08
  1 747 1.88539784E-08
  1 748 1.89398252E-08
  1 749 1.91762501E-08
  1 750 1.99504477E-08
  1 751 2.04686764E-08
  1 752 2.04895064E-08
  1 753 2.04816830E-08
  1 754 1.98773189E-08
  1 755 1.87274096E-08
  1 756 1.76573126E-08
  1 757 1.68480785E-08
  1 758 1.64280530E-08
  1 759 1.63229418E-08
  1 760 1.67700019E-08
  1 761 1.75760682E-08
  1 762 1.82067420E-08
  1 763 1.84996876E-08
  1 764 1.83565684E-08
  1 765 1.85810435E-08
  1 766 1.87679180E-08
  1 767 1.84043118E-08
  1 768 1.83387310E-08
  1 769 1.82002340E-08
  1 770 1.80812294E-08
  1 771 1.83491138E-08
  1 772 1.84036739E-08
  1 773 1.86969584E-08
  1 774 1.87665854E-08
  1 775 1.93151715E-08
  1 776 1.90349518E-08
  1 777 1.86781038E-08
  1 778 1.83172424E-08
  1 779 1.79929057E-08
  1 780 1.73238426E-08
  1 781 1.65413505E-08
  1 782 1.58263332E-08
  1 783 1.46682328E-08
  1 784 1.40681891E-08
  1 785 1.37484615E-08
  1 786 1.30981462E-08
  1 787 1.25922662E-08
  1 788 1.24248622E-08
  1 789 1.26238152E-08
  1 790 1.30802833E-08
  1 791 1.37965284E-08
  1 792 1.47032560E-08
  1 793 1.52044270E-08
  1 794 1.55084185E-08
  1 795 1.58327046E-08
  1 796 1.63182726E-08
  1 797 1.70206873E-08
  1 798 1.71701401E-08
  1 799 1.71849714E-08
  1 800 1.69689507E-08
  1 801 1.71022424E-08
  1 802 1.74897667E-08
  1 803 1.79095786E-08
  1 804 1.79503027E-08
  1 805 1.79677612E-08
  1 806 1.78711197E-08
  1 807 1.74037599E-08
  1 808 1.72912183E-08
  1 809 1.71333056E-08
  1 810 1.68280422E-08
  1 811 1.52638339E-08
  1 812 1.37873368E-08
  1 813 1.24477503E-08
  1 814 1.16609527E-08
  1 815 1.11586055E-08
  1 816 1.09220016E-08
  1 817 1.11456758E-08
  1 818 1.13122980E-08
  1 819 1.17770964E-08
  1 820 1.21483987E-08
  1 821 1.22477627E-08
  1 822 1.20328584E-08
  1 823 1.17450665E-08
  1 824 1.16605918E-08
  1 825 1.19901464E-08
  1 826 1.22727362E-08
  1 827 1.25884191E-08
  1 828 1.31451867E-08
  1 829 1.35453154E-08
  1 830 1.33960393E-08
  1 831 1.28618441E-08
  1 832 1.26555552E-08
  1 833 1.23403357E-08
  1 834 1.16399697E-08
  1 835 1.10094488E-08
  1 836 1.07854151E-08
  1 837 1.08972748E-08
  1 838 1.13912755E-08
  1 839 1.20334833E-08
  1 840 1.25217843E-08
  1 841 1.30654288E-08
  1 842 1.39011202E-08
  1 843 1.49498089E-08
  1 844 1.60570311E-08
  1 845 1.68546017E-08
  1 846 1.73124539E-08
  1 847 1.79508205E-08
  1 848 1.84083935E-08
  1 849 1.88030196E-08
  1 850 1.92394072E-08
  1 851 1.96771152E-08
  1 852 2.00029475E-08
  1 853 2.02278542E-08
  1 854 2.00372579E-08
  1 855 1.91556105E-08
  1 856 1.83655728E-08
  1 857 1.75628183E-08
  1 858 1.70981132E-08
  1 859 1.66372787E-08
  1 860 1.67725052E-08
  1 861 1.74865494E-08
  1 862 1.81691928E-08
  1 863 1.85391554E-08
  1 864 1.85197950E-08
  1 865 1.87730123E-08
  1 866 1.86520985E-08
  1 867 1.82850154E-08
  1 868 1.81050707E-08
  1 869 1.79504486E-08
  1 870 1.78218123E-08
  1 871 1.83033008E-08
  1 872 1.86740992E-08
  1 873 1.87779124E-08
  1 874 1.91989862E-08
  1 875 1.95248057E-08
  1 876 1.95226809E-08
  1 877 1.89320156E-08
  1 878 1.86646417E-08
  1 879 1.78739183E-08
  1 880 1.71278023E-08
  1 881 1.66194033E-08
  1 882 1.58566928E-08
  1 883 1.50488538E-08
  1 884 1.45152016E-08
  1 885 1.41512054E-08
  1 886 1.35968608E-08
  1 887 1.30737732E-08
  1 888 1.28910804E-08
  1 889 1.28936580E-08
  1 890 1.32489029E-08
  1 891 1.38412639E-08
  1 892 1.47109355E-08
  1 893 1.54026762E-08
  1 894 1.53772717E-08
  1 895 1.55899721E-08
  1 896 1.59142057E-08
  1 897 1.64708206E-08
  1 898 1.66030235E-08
  1 899 1.65536980E-08
  1 900 1.62278077E-08
  1 901 1.63020770E-08
  1 902 1.69474637E-08
  1 903 1.74964667E-08
  1 904 1.75535614E-08
  1 905 1.78091454E-08
  1 906 1.76933983E-08
  1 907 1.72869738E-08
  1 908 1.69693027E-08
  1 909 1.69134424E-08
  1 910 1.68426420E-08
  1 911 1.55805294E-08
  1 912 1.39566796E-08
  1 913 1.26690764E-08
  1 914 1.18479011E-08
  1 915 1.13772942E-08
  1 916 1.11917053E-08
  1 917 1.12534384E-08
  1 918 1.14707480E-08
  1 919 1.18382414E-08
  1 920 1.22703374E-08
  1 921 1.23790895E-08
  1 922 1.20411635E-08
  1 923 1.17153991E-08
  1 924 1.16372132E-08
  1 925 1.19294052E-08
  1 926 1.23067638E-08
  1 927 1.29053744E-08
  1 928 1.34289288E-08
  1 929 1.39245732E-08
  1 930 1.39135298E-08
  1 931 1.35346716E-08
  1 932 1.29609743E-08
  1 933 1.26426391E-08
  1 934 1.18438612E-08
  1 935 1.11626360E-08
  1 936 1.08799695E-08
  1 937 1.07935972E-08
  1 938 1.09405339E-08
  1 939 1.12523719E-08
  1 940 1.18530443E-08
  1 941 1.24273760E-08
  1 942 1.33511631E-08
  1 943 1.42763155E-08
  1 944 1.52206952E-08
  1 945 1.58623730E-08
  1 946 1.62704432E-08
  1 947 1.69451378E-08
  1 948 1.75121216E-08
  1 949 1.79819969E-08
  1 950 1.82867591E-08
  1 951 1.86647292E-08
  1 952 1.90552221E-08
  1 953 1.93842660E-08
  1 954 1.93966866E-08
  1 955 1.90879840E-08
  1 956 1.84929230E-08
  1 957 1.80581008E-08
  1 958 1.76754368E-08
  1 959 1.71821340E-08
  1 960 1.70785269E-08
  1 961 1.76669452E-08
  1 962 1.83366269E-08
  1 963 1.87051857E-08
  1 964 1.86862868E-08
  1 965 1.89128425E-08
  1 966 1.87638356E-08
  1 967 1.84189811E-08
  1 968 1.78727803E-08
  1 969 1.77035968E-08
  1 970 1.76329401E-08
  1 971 1.79621397E-08
  1 972 1.84965342E-08
  1 973 1.87904542E-08
  1 974 1.91693809E-08
  1 975 1.95516506E-08
  1 976 1.93514951E-08
  1 977 1.90224196E-08
  1 978 1.84660155E-08
  1 979 1.75357456E-08
  1 980 1.70411328E-08
  1 981 1.64331716E-08
  1 982 1.59869607E-08
  1 983 1.53287972E-08
  1 984 1.46574607E-08
  1 985 1.42932894E-08
  1 986 1.38374077E-08
  1 987 1.34697069E-08
  1 988 1.33985212E-08
  1 989 1.31198285E-08
  1 990 1.31956301E-08
  1 991 1.37783635E-08
  1 992 1.44919777E-08
  1 993 1.51527176E-08
  1 994 1.51645054E-08
  1 995 1.52627685E-08
  1 996 1.53875655E-08
  1 997 1.58325104E-08
  1 998 1.58559300E-08
  1 999 1.57421593E-08
  1 1000 1.53239486E-08
  1 1001 1.55321985E-08
  1 1002 1.63469340E-08
  1 1003 1.69149089E-08
  1 1004 1.72932542E-08
  1 1005 1.77630502E-08
  1 1006 1.76627106E-08
  1 1007 1.73217452E-08
  1 1008 1.69557610E-08
  1 1009 1.68432243E-08
  1 1010 1.69960653E-08
  1 1011 1.59310439E-08
  1 1012 1.43680900E-08
  1 1013 1.29684245E-08
  1 1014 1.21426977E-08
  1 1015 1.16928245E-08
  1 1016 1.15640275E-08
  1 1017 1.14993895E-08
  1 1018 1.16953018E-08
  1 1019 1.20607997E-08
  1 1020 1.24481905E-08
  1 1021 1.24481905E-08
  1 1022 1.24481905E-08
  1 1023 1.24481905E-08
  1 1024 1.25563512E-08
  1 1025 1.22673285E-08
  1 1026 1.19784181E-08
  1 1027 1.18500615E-08
  1 1028 1.21319794E-08
  1 1029 1.25418709E-08
  1 1030 1.31076774E-08
  1 1031 1.36989824E-08
  1 1032 1.41541555E-08
  1 1033 1.42990488E-08
  1 1034 1.40697093E-08
  1 1035 1.35396663E-08
  1 1036 1.30915705E-08
  1 1037 1.21570218E-08
  1 1038 1.12760108E-08
  1 1039 1.09126231E-08
  1 1040 1.06714176E-08
  1 1041 1.05990873E-08
  1 1042 1.05881599E-08
  1 1043 1.10311134E-08
  1 1044 1.15316980E-08
  1 1045 1.25416770E-08
  1 1046 1.35570811E-08
  1 1047 1.41503476E-08
  1 1048 1.47228050E-08
  1 1049 1.52662567E-08
  1 1050 1.58318428E-08
  1 1051 1.65079153E-08
  1 1052 1.67511945E-08
  1 1053 1.71374759E-08
  1 1054 1.74732970E-08
  1 1055 1.76008859E-08
  1 1056 1.79805730E-08
  1 1057 1.80140080E-08
  1 1058 1.83052700E-08
  1 1059 1.84493399E-08
  1 1060 1.80489994E-08
  1 1061 1.79214943E-08
  1 1062 1.77644844E-08
  1 1063 1.76793245E-08
  1 1064 1.76793245E-08
  1 1065 1.76793245E-08
  1 1066 1.76793245E-08
  1 1067 1.80112172E-08
  1 1068 1.85088419E-08
  1 1069 1.86522861E-08
  1 1070 1.86174309E-08
  1 1071 1.87466289E-08
  1 1072 1.86999958E-08
  1 1073 1.82889761E-08
  1 1074 1.76353710E-08
  1 1075 1.73328677E-08
  1 1076 1.72910506E-08
  1 1077 1.74863284E-08
  1 1078 1.81097553E-08
  1 1079 1.86502112E-08
  1 1080 1.88336395E-08
  1 1081 1.93247483E-08
  1 1082 1.91406855E-08
  1 1083 1.87383842E-08
  1 1084 1.81209729E-08
  1 1085 1.72941247E-08
  1 1086 1.67223412E-08
  1 1087 1.65401164E-08
  1 1088 1.61043692E-08
  1 1089 1.55801231E-08
  1 1090 1.50142542E-08
  1 1091 1.45523757E-08
  1 1092 1.41563246E-08
  1 1093 1.39553947E-08
  1 1094 1.37486547E-08
  1 1095 1.33499084E-08
  1 1096 1.31563496E-08
  1 1097 1.36654616E-08
  1 1098 1.42421229E-08
  1 1099 1.48933113E-08
  1 1100 1.50252758E-08
  1 1101 1.49391126E-08
  1 1102 1.52108129E-08
  1 1103 1.56510459E-08
  1 1104 1.55654263E-08
  1 1105 1.52047452E-08
  1 1106 1.47963845E-08
  1 1107 1.47220538E-08
  1 1108 1.54506446E-08
  1 1109 1.60556350E-08
  1 1110 1.64693078E-08
  1 1111 1.70077147E-08
  1 1112 1.72003866E-08
  1 1113 1.70087166E-08
  1 1114 1.66268630E-08
  1 1115 1.65536720E-08
  1 1116 1.66566406E-08
  1 1117 1.57106028E-08
  1 1118 1.43972731E-08
  1 1119 1.31558367E-08
  1 1120 1.22467476E-08
  1 1121 1.18056582E-08
  1 1122 1.15305723E-08
  1 1123 1.14445777E-08
  1 1124 1.17061741E-08
  1 1125 1.20348008E-08
  1 1126 1.20348008E-08
  1 1127 1.20348008E-08
  1 1128 1.20348008E-08
  1 1129 1.23689799E-08
  1 1130 1.23689799E-08
  1 1131 1.23689799E-08
  1 1132 1.23689799E-08
  1 1133 1.23689799E-08
  1 1134 1.23689799E-08
  1 1135 1.23689799E-08
  1 1136 1.23689799E-08
  1 1137 1.23689799E-08
  1 1138 1.23689799E-08
  1 1139 1.23689799E-08
  1 1140 1.23689799E-08
  1 1141 1.23689799E-08
  1 1142 1.23689799E-08
  1 1143 1.23689799E-08
  1 1144 1.23689799E-08
  1 1145 1.23689799E-08
  1 1146 1.23689799E-08
  1 1147 1.23689799E-08
  1 1148 1.23689799E-08
  1 1149 1.23689799E-08
  1 1150 1.23689799E-08
  1 1151 1.23689799E-08
  1 1152 1.23689799E-08
  1 1153 1.23689799E-08
  1 1154 1.23689799E-08
  1 1155 1.23689799E-08
  1 1156 1.23689799E-08
  1 1157 1.23689799E-08
  1 1158 1.23689799E-08
  1 1159 1.23689799E-08
  1 1160 1.23689799E-08
  1 1161 1.23689799E-08
  1 1162 1.23689799E-08
  1 1163 1.23689799E-08
  1 1164 1.23689799E-08
  1 1165 1.23689799E-08
  1 1166 1.23689799E-08
  1 1167 1.23689799E-08
  1 1168 1.23689799E-08
  1 1169 1.25060768E-08
  1 1170 1.25060768E-08
  1 1171 1.25060768E-08
  1 1172 1.25060768E-08
  1 1173 1.24015903E-08
  1 1174 1.23527414E-08
  1 1175 1.21930680E-08
  1 1176 1.23520145E-08
  1 1177 1.28140035E-08
  1 1178 1.33420460E-08
  1 1179 1.38240402E-08
  1 1180 1.41974527E-08
  1 1181 1.44049037E-08
  1 1182 1.44533969E-08
  1 1183 1.39317526E-08
  1 1184 1.32201696E-08
  1 1185 1.24140691E-08
  1 1186 1.14965082E-08
  1 1187 1.08691673E-08
  1 1188 1.05093614E-08
  1 1189 1.04428287E-08
  1 1190 1.04273247E-08
  1 1191 1.05136813E-08
  1 1192 1.09454231E-08
  1 1193 1.16372418E-08
  1 1194 1.25206334E-08
  1 1195 1.31608131E-08
  1 1196 1.36031147E-08
  1 1197 1.43259790E-08
  1 1198 1.50347564E-08
  1 1199 1.53592226E-08
  1 1200 1.55342988E-08
  1 1201 1.59315025E-08
  1 1202 1.65982863E-08
  1 1203 1.66075059E-08
  1 1204 1.69854480E-08
  1 1205 1.70682629E-08
  1 1206 1.74850267E-08
  1 1207 1.79305076E-08
  1 1208 1.78352088E-08
  1 1209 1.78013003E-08
  1 1210 1.82045810E-08
  1 1211 1.82045810E-08
  1 1212 1.82045810E-08
  1 1213 1.82045810E-08
  1 1214 1.83793706E-08
  1 1215 1.83793706E-08
  1 1216 1.83793706E-08
  1 1217 1.83793706E-08
  1 1218 1.83793706E-08
  1 1219 1.83793706E-08
  1 1220 1.83793706E-08
  1 1221 1.83793706E-08
  1 1222 1.83793706E-08
  1 1223 1.83793706E-08
  1 1224 1.83793706E-08
  1 1225 1.83793706E-08
  1 1226 1.83793706E-08
  1 1227 1.83793706E-08
  1 1228 1.83793706E-08
  1 1229 1.83793706E-08
  1 1230 1.83793706E-08
  1 1231 1.83793706E-08
  1 1232 1.83793706E-08
  1 1233 1.83793706E-08
  1 1234 1.83793706E-08
  1 1235 1.83793706E-08
  1 1236 1.83793706E-08
  1 1237 1.83793706E-08
  1 1238 1.83793706E-08
  1 1239 1.83793706E-08
  1 1240 1.83793706E-08
  1 1241 1.83793706E-08
  1 1242 1.83793706E-08
  1 1243 1.83793706E-08
  1 1244 1.83793706E-08
  1 1245 1.83793706E-08
  1 1246 1.83793706E-08
  1 1247 1.83793706E-08
  1 1248 1.83793706E-08
  1 1249 1.83793706E-08
  1 1250 1.83793706E-08
  1 1251 1.83793706E-08
  1 1252 1.83793706E-08
  1 1253 1.83793706E-08
  1 1254 1.85936781E-08
  1 1255 1.85936781E-08
  1 1256 1.85936781E-08
  1 1257 1.85936781E-08
  1 1258 1.87070810E-08
  1 1259 1.86466857E-08
  1 1260 1.84968654E-08
  1 1261 1.88081026E-08
  1 1262 1.83858794E-08
  1 1263 1.77564231E-08
  1 1264 1.72198723E-08
  1 1265 1.70291971E-08
  1 1266 1.71114536E-08
  1 1267 1.73343142E-08
  1 1268 1.78623426E-08
  1 1269 1.85297706E-08
  1 1270 1.84828349E-08
  1 1271 1.89651439E-08
  1 1272 1.87482389E-08
  1 1273 1.81381074E-08
  1 1274 1.76031349E-08
  1 1275 1.69568966E-08
  1 1276 1.65629282E-08
  1 1277 1.64499830E-08
  1 1278 1.61551000E-08
  1 1279 1.58631627E-08
  1 1280 1.53971634E-08
  1 1281 1.49545641E-08
  1 1282 1.45722330E-08
  1 1283 1.42872613E-08
  1 1284 1.39263738E-08
  1 1285 1.34630223E-08
  1 1286 1.33729304E-08
  1 1287 1.34365815E-08
  1 1288 1.39357656E-08
  1 1289 1.46267945E-08