# File generated by Flopy version 3.7.0 on 07/26/2024 at 11:56:40.
BEGIN options
  SAVE_FLOWS
END options

BEGIN griddata
  iconvert
    CONSTANT  1
  ss
    CONSTANT  1.00000000E-05
  sy
    CONSTANT       0.40000000
END griddata

BEGIN period  1
  STEADY-STATE
END period  1

