# File generated by Flopy version 3.6.0 on 11/07/2024 at 09:09:39.
BEGIN options
  PRINT_OPTION  summary
  COMPLEXITY  complex
END options

BEGIN linear
  LINEAR_ACCELERATION  bicgstab
END linear

