# File generated by Flopy version 3.7.0 on 07/16/2024 at 15:16:14.
BEGIN options
END options

BEGIN dimensions
  MAXBOUND  5000
END dimensions

BEGIN period  1
  1 1 1.39876839E-08
  1 2 1.44781320E-08
  1 3 1.45979033E-08
  1 4 1.43092492E-08
  1 5 1.36802407E-08
  1 6 1.31249664E-08
  1 7 1.24877572E-08
  1 8 1.20968335E-08
  1 9 1.18893660E-08
  1 10 1.17456146E-08
  1 11 1.15251774E-08
  1 12 1.13496504E-08
  1 13 1.12385099E-08
  1 14 1.12602226E-08
  1 15 1.13966063E-08
  1 16 1.13995815E-08
  1 17 1.15409240E-08
  1 18 1.17167733E-08
  1 19 1.18604911E-08
  1 20 1.21106390E-08
  1 21 1.23868787E-08
  1 22 1.26121258E-08
  1 23 1.26793129E-08
  1 24 1.25610361E-08
  1 25 1.25983850E-08
  1 26 1.25754630E-08
  1 27 1.26174917E-08
  1 28 1.26257751E-08
  1 29 1.25429889E-08
  1 30 1.24985921E-08
  1 31 1.27248337E-08
  1 32 1.29570537E-08
  1 33 1.30722150E-08
  1 34 1.30149426E-08
  1 35 1.28182511E-08
  1 36 1.25483120E-08
  1 37 1.21043854E-08
  1 38 1.17215272E-08
  1 39 1.14403228E-08
  1 40 1.12041904E-08
  1 41 1.10972728E-08
  1 42 1.10285525E-08
  1 43 1.11368163E-08
  1 44 1.13505936E-08
  1 45 1.17944348E-08
  1 46 1.23615431E-08
  1 47 1.28768429E-08
  1 48 1.33721288E-08
  1 49 1.38859176E-08
  1 50 1.43432766E-08
  1 51 1.49048523E-08
  1 52 1.55366702E-08
  1 53 1.65928113E-08
  1 54 1.73434452E-08
  1 55 1.83148845E-08
  1 56 1.92515113E-08
  1 57 2.05149494E-08
  1 58 2.17299977E-08
  1 59 2.28116259E-08
  1 60 2.38620688E-08
  1 61 2.54254520E-08
  1 62 2.73670380E-08
  1 63 2.93128997E-08
  1 64 3.13547934E-08
  1 65 3.29951424E-08
  1 66 3.38854765E-08
  1 67 3.39899874E-08
  1 68 3.30763837E-08
  1 69 3.25212166E-08
  1 70 3.22468795E-08
  1 71 3.17324772E-08
  1 72 3.12653854E-08
  1 73 3.07952767E-08
  1 74 3.07727485E-08
  1 75 3.08282624E-08
  1 76 3.07077288E-08
  1 77 3.04928400E-08
  1 78 3.02359578E-08
  1 79 3.03151986E-08
  1 80 3.00069980E-08
  1 81 2.93294185E-08
  1 82 2.86782797E-08
  1 83 2.78422610E-08
  1 84 2.68238083E-08
  1 85 2.60563076E-08
  1 86 2.60951558E-08
  1 87 2.62503703E-08
  1 88 2.63316882E-08
  1 89 2.65616724E-08
  1 90 2.65346699E-08
  1 91 2.64418620E-08
  1 92 2.60506700E-08
  1 93 2.54845833E-08
  1 94 2.45158797E-08
  1 95 2.38875202E-08
  1 96 2.35853439E-08
  1 97 2.31413533E-08
  1 98 2.26409662E-08
  1 99 2.21752001E-08
  1 100 2.20372989E-08
  1 101 1.40682412E-08
  1 102 1.45430230E-08
  1 103 1.47565077E-08
  1 104 1.45728869E-08
  1 105 1.39856278E-08
  1 106 1.33281538E-08
  1 107 1.27804764E-08
  1 108 1.22566952E-08
  1 109 1.19584018E-08
  1 110 1.18235975E-08
  1 111 1.16365772E-08
  1 112 1.14661616E-08
  1 113 1.12971601E-08
  1 114 1.12904219E-08
  1 115 1.14046664E-08
  1 116 1.15335861E-08
  1 117 1.16895819E-08
  1 118 1.19645709E-08
  1 119 1.20639914E-08
  1 120 1.22564001E-08
  1 121 1.24485249E-08
  1 122 1.27338259E-08
  1 123 1.28696214E-08
  1 124 1.27505211E-08
  1 125 1.27164080E-08
  1 126 1.26941464E-08
  1 127 1.26972433E-08
  1 128 1.27669227E-08
  1 129 1.27278348E-08
  1 130 1.26104623E-08
  1 131 1.27904350E-08
  1 132 1.30581950E-08
  1 133 1.31645583E-08
  1 134 1.31090068E-08
  1 135 1.29188175E-08
  1 136 1.26995989E-08
  1 137 1.23322400E-08
  1 138 1.19121858E-08
  1 139 1.16678154E-08
  1 140 1.13347053E-08
  1 141 1.12499416E-08
  1 142 1.12080434E-08
  1 143 1.12486371E-08
  1 144 1.13978895E-08
  1 145 1.17684539E-08
  1 146 1.23174190E-08
  1 147 1.28081028E-08
  1 148 1.33887199E-08
  1 149 1.38638165E-08
  1 150 1.43111070E-08
  1 151 1.47466885E-08
  1 152 1.53938678E-08
  1 153 1.63045365E-08
  1 154 1.71319747E-08
  1 155 1.80142837E-08
  1 156 1.89913177E-08
  1 157 2.01688968E-08
  1 158 2.13685530E-08
  1 159 2.24477048E-08
  1 160 2.33846996E-08
  1 161 2.48077158E-08
  1 162 2.66093336E-08
  1 163 2.85387246E-08
  1 164 3.06812979E-08
  1 165 3.24627311E-08
  1 166 3.34762045E-08
  1 167 3.39547558E-08
  1 168 3.33770189E-08
  1 169 3.25840726E-08
  1 170 3.22405320E-08
  1 171 3.18549227E-08
  1 172 3.11308646E-08
  1 173 3.07144135E-08
  1 174 3.05775543E-08
  1 175 3.08534201E-08
  1 176 3.10387637E-08
  1 177 3.08809280E-08
  1 178 3.07885075E-08
  1 179 3.08547773E-08
  1 180 3.04075979E-08
  1 181 2.94061005E-08
  1 182 2.86323926E-08
  1 183 2.78574311E-08
  1 184 2.70136399E-08
  1 185 2.62052819E-08
  1 186 2.59092257E-08
  1 187 2.61346477E-08
  1 188 2.62049256E-08
  1 189 2.63920595E-08
  1 190 2.63098042E-08
  1 191 2.61230591E-08
  1 192 2.58015081E-08
  1 193 2.52311344E-08
  1 194 2.46032329E-08
  1 195 2.37464784E-08
  1 196 2.33735279E-08
  1 197 2.30502686E-08
  1 198 2.26697045E-08
  1 199 2.20517138E-08
  1 200 2.17565571E-08
  1 201 1.43728569E-08
  1 202 1.46753985E-08
  1 203 1.48686232E-08
  1 204 1.48398739E-08
  1 205 1.43988484E-08
  1 206 1.36472634E-08
  1 207 1.31001178E-08
  1 208 1.25112592E-08
  1 209 1.21308939E-08
  1 210 1.19327665E-08
  1 211 1.17475439E-08
  1 212 1.16022607E-08
  1 213 1.14116310E-08
  1 214 1.13316391E-08
  1 215 1.14116548E-08
  1 216 1.16519120E-08
  1 217 1.18124209E-08
  1 218 1.20994385E-08
  1 219 1.22130314E-08
  1 220 1.23757302E-08
  1 221 1.25316595E-08
  1 222 1.27935963E-08
  1 223 1.29323753E-08
  1 224 1.28717784E-08
  1 225 1.27453499E-08
  1 226 1.26655135E-08
  1 227 1.26225406E-08
  1 228 1.26644693E-08
  1 229 1.27286853E-08
  1 230 1.25606027E-08
  1 231 1.26878772E-08
  1 232 1.29157377E-08
  1 233 1.29905023E-08
  1 234 1.29359905E-08
  1 235 1.27383533E-08
  1 236 1.26184072E-08
  1 237 1.23605160E-08
  1 238 1.18828015E-08
  1 239 1.16110736E-08
  1 240 1.13617914E-08
  1 241 1.11963441E-08
  1 242 1.11751311E-08
  1 243 1.11781861E-08
  1 244 1.12788436E-08
  1 245 1.15235900E-08
  1 246 1.20282598E-08
  1 247 1.24890454E-08
  1 248 1.30609329E-08
  1 249 1.35370047E-08
  1 250 1.39686095E-08
  1 251 1.43802515E-08
  1 252 1.48892543E-08
  1 253 1.56659686E-08
  1 254 1.65909445E-08
  1 255 1.74467366E-08
  1 256 1.84035370E-08
  1 257 1.94557160E-08
  1 258 2.05977302E-08
  1 259 2.16006915E-08
  1 260 2.25904117E-08
  1 261 2.38383795E-08
  1 262 2.53713602E-08
  1 263 2.71989312E-08
  1 264 2.93430207E-08
  1 265 3.12875032E-08
  1 266 3.24278559E-08
  1 267 3.33405903E-08
  1 268 3.32452563E-08
  1 269 3.25141051E-08
  1 270 3.18128290E-08
  1 271 3.15253910E-08
  1 272 3.06931888E-08
  1 273 3.02455670E-08
  1 274 3.02194591E-08
  1 275 3.04786099E-08
  1 276 3.08663042E-08
  1 277 3.09685619E-08
  1 278 3.09960780E-08
  1 279 3.10989405E-08
  1 280 3.07099892E-08
  1 281 2.94765218E-08
  1 282 2.85207412E-08
  1 283 2.77857801E-08
  1 284 2.70787030E-08
  1 285 2.63458177E-08
  1 286 2.59254280E-08
  1 287 2.60979532E-08
  1 288 2.62229388E-08
  1 289 2.63958280E-08
  1 290 2.62968253E-08
  1 291 2.60553715E-08
  1 292 2.56667448E-08
  1 293 2.51511649E-08
  1 294 2.45915032E-08
  1 295 2.38110843E-08
  1 296 2.34491299E-08
  1 297 2.31300452E-08
  1 298 2.28488486E-08
  1 299 2.23042180E-08
  1 300 2.17634963E-08
  1 301 1.47643371E-08
  1 302 1.50262609E-08
  1 303 1.51978031E-08
  1 304 1.52109144E-08
  1 305 1.48365420E-08
  1 306 1.40942221E-08
  1 307 1.34983572E-08
  1 308 1.29304764E-08
  1 309 1.23926846E-08
  1 310 1.21522135E-08
  1 311 1.20165529E-08
  1 312 1.18956687E-08
  1 313 1.17385068E-08
  1 314 1.15826782E-08
  1 315 1.16769777E-08
  1 316 1.19532029E-08
  1 317 1.21272815E-08
  1 318 1.23150187E-08
  1 319 1.24818671E-08
  1 320 1.26360349E-08
  1 321 1.28451298E-08
  1 322 1.30808097E-08
  1 323 1.32113673E-08
  1 324 1.31213992E-08
  1 325 1.30182518E-08
  1 326 1.28799068E-08
  1 327 1.28173751E-08
  1 328 1.28260759E-08
  1 329 1.29157806E-08
  1 330 1.27611355E-08
  1 331 1.27353158E-08
  1 332 1.29322806E-08
  1 333 1.30956605E-08
  1 334 1.30057312E-08
  1 335 1.28389184E-08
  1 336 1.26750019E-08
  1 337 1.25623770E-08
  1 338 1.21386160E-08
  1 339 1.17630776E-08
  1 340 1.15983520E-08
  1 341 1.13969383E-08
  1 342 1.13576787E-08
  1 343 1.13731300E-08
  1 344 1.14562747E-08
  1 345 1.15895518E-08
  1 346 1.20384438E-08
  1 347 1.25073528E-08
  1 348 1.29750485E-08
  1 349 1.35173881E-08
  1 350 1.39474044E-08
  1 351 1.44334064E-08
  1 352 1.47814373E-08
  1 353 1.54696901E-08
  1 354 1.63223632E-08
  1 355 1.72085079E-08
  1 356 1.81734781E-08
  1 357 1.92316414E-08
  1 358 2.03537423E-08
  1 359 2.12063876E-08
  1 360 2.21948444E-08
  1 361 2.34067003E-08
  1 362 2.46991198E-08
  1 363 2.63690289E-08
  1 364 2.84917822E-08
  1 365 3.05694841E-08
  1 366 3.19524010E-08
  1 367 3.29247160E-08
  1 368 3.32745837E-08
  1 369 3.29695356E-08
  1 370 3.20691813E-08
  1 371 3.13987358E-08
  1 372 3.08543408E-08
  1 373 3.02320476E-08
  1 374 3.01207429E-08
  1 375 3.04301208E-08
  1 376 3.08699453E-08
  1 377 3.11773088E-08
  1 378 3.12797015E-08
  1 379 3.13375942E-08
  1 380 3.12106028E-08
  1 381 2.99055258E-08
  1 382 2.87399105E-08
  1 383 2.78510459E-08
  1 384 2.71888074E-08
  1 385 2.64467777E-08
  1 386 2.60209023E-08
  1 387 2.59674762E-08
  1 388 2.63976829E-08
  1 389 2.65251683E-08
  1 390 2.63862719E-08
  1 391 2.60824078E-08
  1 392 2.57237484E-08
  1 393 2.51560931E-08
  1 394 2.45605761E-08
  1 395 2.39871500E-08
  1 396 2.35122855E-08
  1 397 2.32077227E-08
  1 398 2.29312517E-08
  1 399 2.24415503E-08
  1 400 2.19915823E-08
  1 401 1.46429513E-08
  1 402 1.49118397E-08
  1 403 1.50671121E-08
  1 404 1.50461960E-08
  1 405 1.47056523E-08
  1 406 1.40550587E-08
  1 407 1.33517861E-08
  1 408 1.28332929E-08
  1 409 1.22405886E-08
  1 410 1.19365446E-08
  1 411 1.18088899E-08
  1 412 1.17232179E-08
  1 413 1.16321591E-08
  1 414 1.14099070E-08
  1 415 1.15299789E-08
  1 416 1.17724234E-08
  1 417 1.19898653E-08
  1 418 1.21020169E-08
  1 419 1.22333230E-08
  1 420 1.23402691E-08
  1 421 1.25755889E-08
  1 422 1.28411126E-08
  1 423 1.30084413E-08
  1 424 1.29173865E-08
  1 425 1.27661527E-08
  1 426 1.26099082E-08
  1 427 1.25485207E-08
  1 428 1.25258954E-08
  1 429 1.25392666E-08
  1 430 1.24581054E-08
  1 431 1.22825548E-08
  1 432 1.24128108E-08
  1 433 1.26460115E-08
  1 434 1.25779151E-08
  1 435 1.24202726E-08
  1 436 1.22909140E-08
  1 437 1.22310402E-08
  1 438 1.19881164E-08
  1 439 1.15227218E-08
  1 440 1.13814404E-08
  1 441 1.12750157E-08
  1 442 1.11435403E-08
  1 443 1.12483876E-08
  1 444 1.13095854E-08
  1 445 1.14674617E-08
  1 446 1.17495729E-08
  1 447 1.21744986E-08
  1 448 1.26016578E-08
  1 449 1.30971046E-08
  1 450 1.35904430E-08
  1 451 1.41171216E-08
  1 452 1.44683632E-08
  1 453 1.49761182E-08
  1 454 1.56634856E-08
  1 455 1.64827469E-08
  1 456 1.74525157E-08
  1 457 1.85072005E-08
  1 458 1.97162462E-08
  1 459 2.05415017E-08
  1 460 2.12915845E-08
  1 461 2.24846325E-08
  1 462 2.36418283E-08
  1 463 2.51458015E-08
  1 464 2.71487208E-08
  1 465 2.94106187E-08
  1 466 3.08743164E-08
  1 467 3.19153170E-08
  1 468 3.24432001E-08
  1 469 3.25791437E-08
  1 470 3.18705339E-08
  1 471 3.10321564E-08
  1 472 3.04785326E-08
  1 473 2.98722214E-08
  1 474 2.96381894E-08
  1 475 2.98664169E-08
  1 476 3.04142776E-08
  1 477 3.09596597E-08
  1 478 3.10097848E-08
  1 479 3.10357650E-08
  1 480 3.10391438E-08
  1 481 3.00484098E-08
  1 482 2.88282541E-08
  1 483 2.77180932E-08
  1 484 2.70473625E-08
  1 485 2.62622527E-08
  1 486 2.58176447E-08
  1 487 2.57355335E-08
  1 488 2.61899822E-08
  1 489 2.62973508E-08
  1 490 2.62347636E-08
  1 491 2.59592593E-08
  1 492 2.57451170E-08
  1 493 2.50840116E-08
  1 494 2.44875609E-08
  1 495 2.40246290E-08
  1 496 2.35400907E-08
  1 497 2.32260232E-08
  1 498 2.27030937E-08
  1 499 2.22910491E-08
  1 500 2.18650793E-08
  1 501 1.43069152E-08
  1 502 1.45586797E-08
  1 503 1.47369040E-08
  1 504 1.48056295E-08
  1 505 1.45737367E-08
  1 506 1.39296528E-08
  1 507 1.32060543E-08
  1 508 1.26780918E-08
  1 509 1.21554552E-08
  1 510 1.16884512E-08
  1 511 1.15722784E-08
  1 512 1.14882802E-08
  1 513 1.14637915E-08
  1 514 1.12675704E-08
  1 515 1.13188098E-08
  1 516 1.15705441E-08
  1 517 1.18005434E-08
  1 518 1.19095916E-08
  1 519 1.19895336E-08
  1 520 1.20587666E-08
  1 521 1.22955521E-08
  1 522 1.25822848E-08
  1 523 1.28341476E-08
  1 524 1.28436051E-08
  1 525 1.26265009E-08
  1 526 1.24866883E-08
  1 527 1.24394815E-08
  1 528 1.24096779E-08
  1 529 1.23783162E-08
  1 530 1.22694490E-08
  1 531 1.20672484E-08
  1 532 1.20853011E-08
  1 533 1.22642832E-08
  1 534 1.23142560E-08
  1 535 1.22274802E-08
  1 536 1.20680209E-08
  1 537 1.19814102E-08
  1 538 1.18994971E-08
  1 539 1.14875055E-08
  1 540 1.12945569E-08
  1 541 1.12544367E-08
  1 542 1.11854996E-08
  1 543 1.12500849E-08
  1 544 1.13554782E-08
  1 545 1.15568497E-08
  1 546 1.17602668E-08
  1 547 1.21271658E-08
  1 548 1.25701639E-08
  1 549 1.29473287E-08
  1 550 1.34937285E-08
  1 551 1.40264805E-08
  1 552 1.44783754E-08
  1 553 1.48889338E-08
  1 554 1.54291583E-08
  1 555 1.61104568E-08
  1 556 1.70385424E-08
  1 557 1.80948864E-08
  1 558 1.93345374E-08
  1 559 2.02532966E-08
  1 560 2.09158678E-08
  1 561 2.20010313E-08
  1 562 2.31460305E-08
  1 563 2.44948172E-08
  1 564 2.63881109E-08
  1 565 2.87108205E-08
  1 566 3.05424387E-08
  1 567 3.15226300E-08
  1 568 3.22329530E-08
  1 569 3.25069572E-08
  1 570 3.22935043E-08
  1 571 3.12899092E-08
  1 572 3.06517308E-08
  1 573 3.01643325E-08
  1 574 2.98412640E-08
  1 575 3.00091526E-08
  1 576 3.06525433E-08
  1 577 3.12953574E-08
  1 578 3.14389538E-08
  1 579 3.13312297E-08
  1 580 3.13803482E-08
  1 581 3.06868042E-08
  1 582 2.96309293E-08
  1 583 2.84538443E-08
  1 584 2.75064885E-08
  1 585 2.67410662E-08
  1 586 2.63314074E-08
  1 587 2.61866275E-08
  1 588 2.64566280E-08
  1 589 2.66696554E-08
  1 590 2.64999281E-08
  1 591 2.64381125E-08
  1 592 2.61972810E-08
  1 593 2.57416380E-08
  1 594 2.47588335E-08
  1 595 2.44786838E-08
  1 596 2.41001231E-08
  1 597 2.36295225E-08
  1 598 2.29593327E-08
  1 599 2.24269268E-08
  1 600 2.20426479E-08
  1 601 1.48114977E-08
  1 602 1.50834423E-08
  1 603 1.52536719E-08
  1 604 1.54548429E-08
  1 605 1.53159012E-08
  1 606 1.46442449E-08
  1 607 1.39276763E-08
  1 608 1.32940207E-08
  1 609 1.27482265E-08
  1 610 1.22795524E-08
  1 611 1.20059108E-08
  1 612 1.19160299E-08
  1 613 1.19013485E-08
  1 614 1.17362657E-08
  1 615 1.16955207E-08
  1 616 1.18583947E-08
  1 617 1.21407410E-08
  1 618 1.22954425E-08
  1 619 1.23196874E-08
  1 620 1.23170471E-08
  1 621 1.25412756E-08
  1 622 1.28248364E-08
  1 623 1.31721444E-08
  1 624 1.32257326E-08
  1 625 1.30677516E-08
  1 626 1.28373748E-08
  1 627 1.27697774E-08
  1 628 1.28405880E-08
  1 629 1.27272283E-08
  1 630 1.25531972E-08
  1 631 1.23545867E-08
  1 632 1.22472702E-08
  1 633 1.23577990E-08
  1 634 1.24102004E-08
  1 635 1.23562126E-08
  1 636 1.22669521E-08
  1 637 1.20978005E-08
  1 638 1.20364207E-08
  1 639 1.18019076E-08
  1 640 1.15275666E-08
  1 641 1.14346427E-08
  1 642 1.14454905E-08
  1 643 1.14775363E-08
  1 644 1.16063508E-08
  1 645 1.18088545E-08
  1 646 1.20217003E-08
  1 647 1.22724078E-08
  1 648 1.27585713E-08
  1 649 1.31101986E-08
  1 650 1.34854260E-08
  1 651 1.39982242E-08
  1 652 1.45621814E-08
  1 653 1.49132209E-08
  1 654 1.54332660E-08
  1 655 1.60084033E-08
  1 656 1.67300346E-08
  1 657 1.76614654E-08
  1 658 1.89029590E-08
  1 659 1.99272974E-08
  1 660 2.06282573E-08
  1 661 2.16083349E-08
  1 662 2.26091045E-08
  1 663 2.38740705E-08
  1 664 2.55621446E-08
  1 665 2.76701707E-08
  1 666 2.96038484E-08
  1 667 3.07923736E-08
  1 668 3.16285423E-08
  1 669 3.19943770E-08
  1 670 3.20441286E-08
  1 671 3.11647233E-08
  1 672 3.04622177E-08
  1 673 2.99164499E-08
  1 674 2.97302794E-08
  1 675 2.97024885E-08
  1 676 3.02141581E-08
  1 677 3.10149011E-08
  1 678 3.12673831E-08
  1 679 3.10422396E-08
  1 680 3.08795521E-08
  1 681 3.05098197E-08
  1 682 2.96287821E-08
  1 683 2.86294857E-08
  1 684 2.74425444E-08
  1 685 2.65114166E-08
  1 686 2.61685650E-08
  1 687 2.59802234E-08
  1 688 2.61748889E-08
  1 689 2.63914644E-08
  1 690 2.60970532E-08
  1 691 2.59695015E-08
  1 692 2.57828051E-08
  1 693 2.54293019E-08
  1 694 2.45525107E-08
  1 695 2.39943749E-08
  1 696 2.36938477E-08
  1 697 2.32689472E-08
  1 698 2.24923200E-08
  1 699 2.19197104E-08
  1 700 2.15858495E-08
  1 701 1.49158554E-08
  1 702 1.51867647E-08
  1 703 1.53539613E-08
  1 704 1.55433322E-08
  1 705 1.54990405E-08
  1 706 1.49513873E-08
  1 707 1.42979780E-08
  1 708 1.35327785E-08
  1 709 1.30339770E-08
  1 710 1.25667330E-08
  1 711 1.22276496E-08
  1 712 1.20686144E-08
  1 713 1.20889362E-08
  1 714 1.18948670E-08
  1 715 1.18271279E-08
  1 716 1.18711597E-08
  1 717 1.21968137E-08
  1 718 1.23892093E-08
  1 719 1.23981575E-08
  1 720 1.24139513E-08
  1 721 1.25293033E-08
  1 722 1.28080920E-08
  1 723 1.31930371E-08
  1 724 1.33123756E-08
  1 725 1.32419324E-08
  1 726 1.30397983E-08
  1 727 1.29231544E-08
  1 728 1.29580453E-08
  1 729 1.29053213E-08
  1 730 1.26527616E-08
  1 731 1.24691810E-08
  1 732 1.23139887E-08
  1 733 1.22678125E-08
  1 734 1.23603368E-08
  1 735 1.22673841E-08
  1 736 1.22351430E-08
  1 737 1.21384082E-08
  1 738 1.20909372E-08
  1 739 1.19419298E-08
  1 740 1.16244811E-08
  1 741 1.14342423E-08
  1 742 1.15244077E-08
  1 743 1.15902907E-08
  1 744 1.16857564E-08
  1 745 1.18722670E-08
  1 746 1.21157148E-08
  1 747 1.24031842E-08
  1 748 1.27528104E-08
  1 749 1.32209871E-08
  1 750 1.35292955E-08
  1 751 1.38829819E-08
  1 752 1.44913646E-08
  1 753 1.49495141E-08
  1 754 1.54126210E-08
  1 755 1.59313089E-08
  1 756 1.65297246E-08
  1 757 1.72706836E-08
  1 758 1.83638914E-08
  1 759 1.95671878E-08
  1 760 2.04039325E-08
  1 761 2.12872112E-08
  1 762 2.22900313E-08
  1 763 2.33558806E-08
  1 764 2.48481832E-08
  1 765 2.66186327E-08
  1 766 2.85885647E-08
  1 767 3.01181936E-08
  1 768 3.12297215E-08
  1 769 3.16223439E-08
  1 770 3.18754741E-08
  1 771 3.13335383E-08
  1 772 3.05991210E-08
  1 773 3.00340177E-08
  1 774 2.99738545E-08
  1 775 2.98561635E-08
  1 776 3.01543466E-08
  1 777 3.08381274E-08
  1 778 3.14159233E-08
  1 779 3.14084697E-08
  1 780 3.10570885E-08
  1 781 3.07965527E-08
  1 782 3.02366714E-08
  1 783 2.92617301E-08
  1 784 2.80108995E-08
  1 785 2.69621508E-08
  1 786 2.65592746E-08
  1 787 2.65549835E-08
  1 788 2.66803945E-08
  1 789 2.68366594E-08
  1 790 2.65656316E-08
  1 791 2.62661922E-08
  1 792 2.61944997E-08
  1 793 2.57657101E-08
  1 794 2.49870018E-08
  1 795 2.42947075E-08
  1 796 2.38867002E-08
  1 797 2.35889133E-08
  1 798 2.27952048E-08
  1 799 2.21677383E-08
  1 800 2.18781873E-08
  1 801 1.49012749E-08
  1 802 1.52385959E-08
  1 803 1.52919754E-08
  1 804 1.54476262E-08
  1 805 1.54000042E-08
  1 806 1.50283476E-08
  1 807 1.44623062E-08
  1 808 1.37193181E-08
  1 809 1.31455566E-08
  1 810 1.26819933E-08
  1 811 1.23275399E-08
  1 812 1.20973073E-08
  1 813 1.20883700E-08
  1 814 1.19078727E-08
  1 815 1.18188879E-08
  1 816 1.17013466E-08
  1 817 1.20128538E-08
  1 818 1.22751790E-08
  1 819 1.23205273E-08
  1 820 1.23100467E-08
  1 821 1.24261938E-08
  1 822 1.26270283E-08
  1 823 1.29944692E-08
  1 824 1.31274773E-08
  1 825 1.31295737E-08
  1 826 1.30132491E-08
  1 827 1.29400252E-08
  1 828 1.28256293E-08
  1 829 1.28320374E-08
  1 830 1.26107453E-08
  1 831 1.23657664E-08
  1 832 1.21805675E-08
  1 833 1.20652370E-08
  1 834 1.20417677E-08
  1 835 1.20378673E-08
  1 836 1.19744088E-08
  1 837 1.19872935E-08
  1 838 1.19345148E-08
  1 839 1.18383877E-08
  1 840 1.15505260E-08
  1 841 1.13049336E-08
  1 842 1.13726438E-08
  1 843 1.14786722E-08
  1 844 1.15180183E-08
  1 845 1.16598816E-08
  1 846 1.19654058E-08
  1 847 1.23046705E-08
  1 848 1.26720245E-08
  1 849 1.31373309E-08
  1 850 1.34398225E-08
  1 851 1.36932166E-08
  1 852 1.42091624E-08
  1 853 1.47193390E-08
  1 854 1.53018785E-08
  1 855 1.57341787E-08
  1 856 1.62562067E-08
  1 857 1.68420779E-08
  1 858 1.77456385E-08
  1 859 1.88906060E-08
  1 860 1.98316592E-08
  1 861 2.07330827E-08
  1 862 2.17478814E-08
  1 863 2.26319917E-08
  1 864 2.39738802E-08
  1 865 2.55461079E-08
  1 866 2.72657144E-08
  1 867 2.90421398E-08
  1 868 3.02318328E-08
  1 869 3.08730200E-08
  1 870 3.11900731E-08
  1 871 3.10154635E-08
  1 872 3.04298289E-08
  1 873 2.99545887E-08
  1 874 2.99330364E-08
  1 875 2.97996849E-08
  1 876 3.00382934E-08
  1 877 3.04907938E-08
  1 878 3.10567927E-08
  1 879 3.11875622E-08
  1 880 3.10371233E-08
  1 881 3.07928162E-08
  1 882 3.04392789E-08
  1 883 2.96717028E-08
  1 884 2.84216073E-08
  1 885 2.72657746E-08
  1 886 2.66863160E-08
  1 887 2.66817751E-08
  1 888 2.68647789E-08
  1 889 2.69962826E-08
  1 890 2.67746985E-08
  1 891 2.63903985E-08
  1 892 2.62456828E-08
  1 893 2.57101221E-08
  1 894 2.49764229E-08
  1 895 2.44088004E-08
  1 896 2.38503133E-08
  1 897 2.35499595E-08
  1 898 2.29757993E-08
  1 899 2.23150387E-08
  1 900 2.19328583E-08
  1 901 1.50077888E-08
  1 902 1.53872278E-08
  1 903 1.53862333E-08
  1 904 1.55707428E-08
  1 905 1.54903897E-08
  1 906 1.51735550E-08
  1 907 1.46321936E-08
  1 908 1.40006729E-08
  1 909 1.34131553E-08
  1 910 1.28077502E-08
  1 911 1.24730833E-08
  1 912 1.22482103E-08
  1 913 1.21577470E-08
  1 914 1.19841379E-08
  1 915 1.18947939E-08
  1 916 1.17268879E-08
  1 917 1.18789336E-08
  1 918 1.22141954E-08
  1 919 1.23063546E-08
  1 920 1.23633656E-08
  1 921 1.24176468E-08
  1 922 1.25645657E-08
  1 923 1.28564321E-08
  1 924 1.30414260E-08
  1 925 1.30652176E-08
  1 926 1.30591310E-08
  1 927 1.30402209E-08
  1 928 1.28810800E-08
  1 929 1.28331883E-08
  1 930 1.26892655E-08
  1 931 1.23259158E-08
  1 932 1.21032716E-08
  1 933 1.20186497E-08
  1 934 1.19120030E-08
  1 935 1.18795666E-08
  1 936 1.18679336E-08
  1 937 1.18576378E-08
  1 938 1.19304419E-08
  1 939 1.18392644E-08
  1 940 1.15924690E-08
  1 941 1.13675447E-08
  1 942 1.13258400E-08
  1 943 1.14740426E-08
  1 944 1.14499310E-08
  1 945 1.15740557E-08
  1 946 1.18703256E-08
  1 947 1.22850800E-08
  1 948 1.26867458E-08
  1 949 1.31861590E-08
  1 950 1.34638120E-08
  1 951 1.36769142E-08
  1 952 1.40404986E-08
  1 953 1.45745484E-08
  1 954 1.52476304E-08
  1 955 1.57083662E-08
  1 956 1.62197162E-08
  1 957 1.67889385E-08
  1 958 1.75078296E-08
  1 959 1.84729714E-08
  1 960 1.94091322E-08
  1 961 2.04112787E-08
  1 962 2.13747052E-08
  1 963 2.23112584E-08
  1 964 2.34476863E-08
  1 965 2.48028344E-08
  1 966 2.63003988E-08
  1 967 2.79916708E-08
  1 968 2.93763894E-08
  1 969 3.02403531E-08
  1 970 3.05635431E-08
  1 971 3.06980066E-08
  1 972 3.03837699E-08
  1 973 3.00039842E-08
  1 974 2.99338500E-08
  1 975 2.99241280E-08
  1 976 2.99816644E-08
  1 977 3.02006578E-08
  1 978 3.08102110E-08
  1 979 3.09701570E-08
  1 980 3.09262479E-08
  1 981 3.08714744E-08
  1 982 3.05406173E-08
  1 983 2.99092859E-08
  1 984 2.88698556E-08
  1 985 2.75150279E-08
  1 986 2.68408689E-08
  1 987 2.65040604E-08
  1 988 2.67961739E-08
  1 989 2.70811078E-08
  1 990 2.67647910E-08
  1 991 2.63129397E-08
  1 992 2.59872958E-08
  1 993 2.53891174E-08
  1 994 2.46651448E-08
  1 995 2.42634146E-08
  1 996 2.38085162E-08
  1 997 2.33171690E-08
  1 998 2.28476998E-08
  1 999 2.22758950E-08
  1 1000 2.16891903E-08
  1 1001 1.49151541E-08
  1 1002 1.51974374E-08
  1 1003 1.52654284E-08
  1 1004 1.53627661E-08
  1 1005 1.53068765E-08
  1 1006 1.50258203E-08
  1 1007 1.45690204E-08
  1 1008 1.39644216E-08
  1 1009 1.34088448E-08
  1 1010 1.27661271E-08
  1 1011 1.23304087E-08
  1 1012 1.20436345E-08
  1 1013 1.19447803E-08
  1 1014 1.17247254E-08
  1 1015 1.16343972E-08
  1 1016 1.14884962E-08
  1 1017 1.14838336E-08
  1 1018 1.17386912E-08
  1 1019 1.18599166E-08
  1 1020 1.20571858E-08
  1 1021 1.20722175E-08
  1 1022 1.22395700E-08
  1 1023 1.24391625E-08
  1 1024 1.26172247E-08
  1 1025 1.26120683E-08
  1 1026 1.26403770E-08
  1 1027 1.27519267E-08
  1 1028 1.26387033E-08
  1 1029 1.24901698E-08
  1 1030 1.22962469E-08
  1 1031 1.19557989E-08
  1 1032 1.17199222E-08
  1 1033 1.15676826E-08
  1 1034 1.14685139E-08
  1 1035 1.13826134E-08
  1 1036 1.13555486E-08
  1 1037 1.13995059E-08
  1 1038 1.14933453E-08
  1 1039 1.14769472E-08
  1 1040 1.12742382E-08
  1 1041 1.10694897E-08
  1 1042 1.09672917E-08
  1 1043 1.10783570E-08
  1 1044 1.10646214E-08
  1 1045 1.11597900E-08
  1 1046 1.14042161E-08
  1 1047 1.18440119E-08
  1 1048 1.22758453E-08
  1 1049 1.27684134E-08
  1 1050 1.30759836E-08
  1 1051 1.32390949E-08
  1 1052 1.34945955E-08
  1 1053 1.39369062E-08
  1 1054 1.46285980E-08
  1 1055 1.52208345E-08
  1 1056 1.57035007E-08
  1 1057 1.61900928E-08
  1 1058 1.68741159E-08
  1 1059 1.76078531E-08
  1 1060 1.85319398E-08
  1 1061 1.95153698E-08
  1 1062 2.04501553E-08
  1 1063 2.14220947E-08
  1 1064 2.24121629E-08
  1 1065 2.35679435E-08
  1 1066 2.47976194E-08
  1 1067 2.63084830E-08
  1 1068 2.76049046E-08
  1 1069 2.86538542E-08
  1 1070 2.92179903E-08
  1 1071 2.93575095E-08
  1 1072 2.93090918E-08
  1 1073 2.92430500E-08
  1 1074 2.90035708E-08
  1 1075 2.91620760E-08
  1 1076 2.93179350E-08
  1 1077 2.92533611E-08
  1 1078 2.98866121E-08
  1 1079 3.01083453E-08
  1 1080 3.01934399E-08
  1 1081 3.01947980E-08
  1 1082 3.00244959E-08
  1 1083 2.94311272E-08
  1 1084 2.87331497E-08
  1 1085 2.73757043E-08
  1 1086 2.64119394E-08
  1 1087 2.58532538E-08
  1 1088 2.60080090E-08
  1 1089 2.63805701E-08
  1 1090 2.62115290E-08
  1 1091 2.58397090E-08
  1 1092 2.54442994E-08
  1 1093 2.48150257E-08
  1 1094 2.40976264E-08
  1 1095 2.37194060E-08
  1 1096 2.33197740E-08
  1 1097 2.27219796E-08
  1 1098 2.22290606E-08
  1 1099 2.17561094E-08
  1 1100 2.11539401E-08
  1 1101 1.48876304E-08
  1 1102 1.50190007E-08
  1 1103 1.51361702E-08
  1 1104 1.52225067E-08
  1 1105 1.51558351E-08
  1 1106 1.48826954E-08
  1 1107 1.45830955E-08
  1 1108 1.40406947E-08
  1 1109 1.34738811E-08
  1 1110 1.28342871E-08
  1 1111 1.23388017E-08
  1 1112 1.20708383E-08
  1 1113 1.18438580E-08
  1 1114 1.16505440E-08
  1 1115 1.15649132E-08
  1 1116 1.14153787E-08
  1 1117 1.13358060E-08
  1 1118 1.15122014E-08
  1 1119 1.16734903E-08
  1 1120 1.19066440E-08
  1 1121 1.20250334E-08
  1 1122 1.22123633E-08
  1 1123 1.23459902E-08
  1 1124 1.24947127E-08
  1 1125 1.25569978E-08
  1 1126 1.25548587E-08
  1 1127 1.27430068E-08
  1 1128 1.27704042E-08
  1 1129 1.26245444E-08
  1 1130 1.23762455E-08
  1 1131 1.20312236E-08
  1 1132 1.17237034E-08
  1 1133 1.15166732E-08
  1 1134 1.14345517E-08
  1 1135 1.13486592E-08
  1 1136 1.12892340E-08
  1 1137 1.13617518E-08
  1 1138 1.14887477E-08
  1 1139 1.15191161E-08
  1 1140 1.13706164E-08
  1 1141 1.11970016E-08
  1 1142 1.11372709E-08
  1 1143 1.11439506E-08
  1 1144 1.11587323E-08
  1 1145 1.12441257E-08
  1 1146 1.14371177E-08
  1 1147 1.18015667E-08
  1 1148 1.23271622E-08
  1 1149 1.27828424E-08
  1 1150 1.31959830E-08
  1 1151 1.33391537E-08
  1 1152 1.34860967E-08
  1 1153 1.38207927E-08
  1 1154 1.45480301E-08
  1 1155 1.52542665E-08
  1 1156 1.57890151E-08
  1 1157 1.62481347E-08
  1 1158 1.69013474E-08
  1 1159 1.75599728E-08
  1 1160 1.84178714E-08
  1 1161 1.93893609E-08
  1 1162 2.03615121E-08
  1 1163 2.14158560E-08
  1 1164 2.23407188E-08
  1 1165 2.33077388E-08
  1 1166 2.43354681E-08
  1 1167 2.55767645E-08
  1 1168 2.68474485E-08
  1 1169 2.78870497E-08
  1 1170 2.86635950E-08
  1 1171 2.89739209E-08
  1 1172 2.90697438E-08
  1 1173 2.90874724E-08
  1 1174 2.88794850E-08
  1 1175 2.89629313E-08
  1 1176 2.92952435E-08
  1 1177 2.92399014E-08
  1 1178 2.96817438E-08
  1 1179 3.00742647E-08
  1 1180 3.02989486E-08
  1 1181 3.03756050E-08
  1 1182 3.01760014E-08
  1 1183 2.99000790E-08
  1 1184 2.92188870E-08
  1 1185 2.79278610E-08
  1 1186 2.66878119E-08
  1 1187 2.59743412E-08
  1 1188 2.57817858E-08
  1 1189 2.61448757E-08
  1 1190 2.62747478E-08
  1 1191 2.59793029E-08
  1 1192 2.55643008E-08
  1 1193 2.51113080E-08
  1 1194 2.42787387E-08
  1 1195 2.38364215E-08
  1 1196 2.34687875E-08
  1 1197 2.28061837E-08
  1 1198 2.21648387E-08
  1 1199 2.17049696E-08
  1 1200 2.12577974E-08
  1 1201 1.53408125E-08
  1 1202 1.52651397E-08
  1 1203 1.54393274E-08
  1 1204 1.55551895E-08
  1 1205 1.54690904E-08
  1 1206 1.52219288E-08
  1 1207 1.48723579E-08
  1 1208 1.45076441E-08
  1 1209 1.39569023E-08
  1 1210 1.32476540E-08
  1 1211 1.26756021E-08
  1 1212 1.24168384E-08
  1 1213 1.21948518E-08
  1 1214 1.19787532E-08
  1 1215 1.18041165E-08
  1 1216 1.16921432E-08
  1 1217 1.15023568E-08
  1 1218 1.16091494E-08
  1 1219 1.17139072E-08
  1 1220 1.19821266E-08
  1 1221 1.21409857E-08
  1 1222 1.24016673E-08
  1 1223 1.25011161E-08
  1 1224 1.26774632E-08
  1 1225 1.27169758E-08
  1 1226 1.27404637E-08
  1 1227 1.28603890E-08
  1 1228 1.29755647E-08
  1 1229 1.28345606E-08
  1 1230 1.26107889E-08
  1 1231 1.22788522E-08
  1 1232 1.18845987E-08
  1 1233 1.15776328E-08
  1 1234 1.14913884E-08
  1 1235 1.14041360E-08
  1 1236 1.12867822E-08
  1 1237 1.13911766E-08
  1 1238 1.15167185E-08
  1 1239 1.15528592E-08
  1 1240 1.14847152E-08
  1 1241 1.13087837E-08
  1 1242 1.12656686E-08
  1 1243 1.12152903E-08
  1 1244 1.12025771E-08
  1 1245 1.12192648E-08
  1 1246 1.14308665E-08
  1 1247 1.16685170E-08
  1 1248 1.22068662E-08
  1 1249 1.27231426E-08
  1 1250 1.31367943E-08
  1 1251 1.33188765E-08
  1 1252 1.33825694E-08
  1 1253 1.37089590E-08
  1 1254 1.43521804E-08
  1 1255 1.51204838E-08
  1 1256 1.57629840E-08
  1 1257 1.61889264E-08
  1 1258 1.67546490E-08
  1 1259 1.74478442E-08
  1 1260 1.82638887E-08
  1 1261 1.91813121E-08
  1 1262 2.01539884E-08
  1 1263 2.12441254E-08
  1 1264 2.21308314E-08
  1 1265 2.28532271E-08
  1 1266 2.38216694E-08
  1 1267 2.49362774E-08
  1 1268 2.60765597E-08
  1 1269 2.69405423E-08
  1 1270 2.78811650E-08
  1 1271 2.82532598E-08
  1 1272 2.85678896E-08
  1 1273 2.85297671E-08
  1 1274 2.85063292E-08
  1 1275 2.84337457E-08
  1 1276 2.87856593E-08
  1 1277 2.88346365E-08
  1 1278 2.92887109E-08
  1 1279 2.99568794E-08
  1 1280 3.02501520E-08
  1 1281 3.03869322E-08
  1 1282 3.01735899E-08
  1 1283 3.01877341E-08
  1 1284 2.94867861E-08
  1 1285 2.85380970E-08
  1 1286 2.71719495E-08
  1 1287 2.61125545E-08
  1 1288 2.56690928E-08
  1 1289 2.58250127E-08