# File generated by Flopy version 3.6.0 on 10/31/2024 at 14:01:16.
BEGIN griddata
  strt
    INTERNAL  FACTOR  1.0
        15.00000000      15.00000000      15.00000000      15.00000000      15.00000000      15.00000000      15.00000000      15.00000000      15.00000000      15.00000000      15.00000000      15.00000000      15.00000000      15.00000000      15.00000000      15.00000000      15.00000000      15.00000000      15.00000000      15.00000000
        15.00000000      15.00000000      15.00000000      15.00000000      15.00000000      15.00000000      15.00000000      15.00000000      15.00000000      15.00000000      15.00000000      15.00000000      15.00000000      15.00000000      15.00000000      15.00000000      15.00000000      15.00000000      15.00000000      15.00000000
        15.00000000      15.00000000      15.00000000      15.00000000      15.00000000      15.00000000      15.00000000      15.00000000      15.00000000      15.00000000      15.00000000      15.00000000      15.00000000      15.00000000      15.00000000      15.00000000      15.00000000      15.00000000      15.00000000      15.00000000
        15.00000000      15.00000000      15.00000000      15.00000000      15.00000000      15.00000000      15.00000000      15.00000000      15.00000000      15.00000000      15.00000000      15.00000000      15.00000000      15.00000000      15.00000000      15.00000000      15.00000000      15.00000000      15.00000000      15.00000000
        15.00000000      15.00000000      15.00000000      15.00000000      15.00000000      15.00000000      15.00000000      15.00000000      15.00000000      15.00000000      15.00000000      15.00000000      15.00000000      15.00000000      15.00000000      15.00000000      15.00000000      15.00000000      15.00000000      15.00000000
        15.02227337      15.02187350      15.02110820      15.02026926      15.01917703      15.01762240      15.01587802      15.01417402      15.01270662      15.01136240      15.01053992      15.00982679      15.00913540      15.00875327      15.00866987      15.00875253      15.00884496      15.00908243      15.00933670      15.00937952
        15.00942479      15.00977409      15.01036135      15.01096159      15.01155308      15.01221789      15.01292564      15.01368113      15.01446968      15.01525218      15.01666246      15.01850792      15.02077486      15.02332458      15.02632576      15.02894906      15.03137104      15.03312396      15.03541732      15.03814547
        15.04021424      15.04196156      15.04438094      15.04778327      15.05295536      15.06043528      15.06912175      15.08003037      15.09085965      15.10184367      15.11424553      15.12653063      15.13612869      15.14384236      15.14962738      15.14892204      15.14573190      15.13561938      15.12675341      15.11943655
        15.10898603      15.09474300      15.08014164      15.06888457      15.06108907      15.05539156      15.05163793      15.04922414      15.04859156      15.05021579      15.05308977      15.05626518      15.05942083      15.06273962      15.06599367      15.07010907      15.07527119      15.07934215      15.08197038      15.08429948
        15.08726875      15.09101638      15.09560728      15.10138386      15.10895315      15.11850986      15.12669808      15.13153948      15.13224476      15.13199615      15.13165710      15.13123386      15.13101446      15.13376444      15.14174127      15.15009559      15.15544493      15.15706612      15.15596795      15.15662931
        15.04137455      15.04034445      15.03885163      15.03716668      15.03505763      15.03254447      15.03004573      15.02744883      15.02483654      15.02253967      15.02075605      15.01938439      15.01807872      15.01722969      15.01692638      15.01696934      15.01711363      15.01737869      15.01771896      15.01797434
        15.01822525      15.01882168      15.01965081      15.02066716      15.02182334      15.02302860      15.02429093      15.02580299      15.02778535      15.02992358      15.03287285      15.03678709      15.04148156      15.04655909      15.05212223      15.05771217      15.06279187      15.06703514      15.07107145      15.07576736
        15.08046782      15.08407373      15.08845062      15.09444452      15.10285112      15.11462358      15.12950831      15.14789831      15.16834285      15.19021125      15.21326001      15.23674082      15.25624973      15.27083660      15.28110864      15.28270410      15.27924682      15.26595112      15.24841487      15.23172166
        15.21278691      15.18878921      15.16280761      15.14167031      15.12794387      15.11774044      15.11095743      15.10611764      15.10387265      15.10491056      15.10901112      15.11400715      15.11995266      15.12537880      15.13264493      15.14119563      15.15071892      15.15891030      15.16510039      15.16942627
        15.17565346      15.18435961      15.19305163      15.20297793      15.21527609      15.22906162      15.24190891      15.25025653      15.25337558      15.25593115      15.25800686      15.25915689      15.26118891      15.26329609      15.27167390      15.28346483      15.29508492      15.30032264      15.30259984      15.30193183
        15.05761384      15.05622847      15.05410149      15.05173206      15.04898990      15.04604728      15.04314851      15.04014139      15.03675253      15.03365183      15.03098248      15.02893039      15.02709548      15.02578253      15.02509660      15.02490611      15.02500200      15.02514743      15.02534453      15.02573954
        15.02629928      15.02698320      15.02791876      15.02925103      15.03087065      15.03256244      15.03441678      15.03671009      15.03979156      15.04351693      15.04834321      15.05455726      15.06176400      15.06963457      15.07783984      15.08597114      15.09346701      15.10026009      15.10603970      15.11248621
        15.11877981      15.12445195      15.13104923      15.13954020      15.15097826      15.16597967      15.18529505      15.20880773      15.23701027      15.26771060      15.29944744      15.33195756      15.36057617      15.38341293      15.39803990      15.40409815      15.40032580      15.38650466      15.36258992      15.33745864
        15.31207878      15.28277036      15.24945808      15.21979778      15.19971154      15.18603443      15.17601857      15.16980705      15.16588643      15.16588392      15.17015818      15.17672287      15.18397860      15.19085912      15.20081255      15.21335069      15.22644138      15.23875042      15.24908319      15.25664035
        15.26561681      15.27816112      15.29187484      15.30474760      15.31890745      15.33363237      15.34871466      15.35885419      15.36335785      15.36795407      15.37405795      15.37907545      15.38419746      15.38898301      15.39709662      15.40929859      15.42432012      15.43519875      15.44320781      15.44534802
        15.07155020      15.07010213      15.06755734      15.06476090      15.06157532      15.05840217      15.05530807      15.05208930      15.04842453      15.04465444      15.04134497      15.03870830      15.03648097      15.03456027      15.03334679      15.03274693      15.03263799      15.03269441      15.03271784      15.03300138
        15.03375700      15.03464755      15.03575630      15.03733359      15.03923878      15.04141670      15.04397177      15.04719343      15.05125431      15.05655353      15.06333646      15.07181141      15.08146187      15.09214335      15.10315723      15.11365986      15.12353257      15.13246009      15.14053626      15.14811382
        15.15567000      15.16381919      15.17291711      15.18459029      15.20022097      15.21925787      15.24189490      15.26891227      15.30237623      15.33953409      15.37793280      15.41630925      15.45232681      15.48246438      15.50359651      15.51495193      15.51373314      15.50012290      15.47384467      15.44263480
        15.41339358      15.38181901      15.34565095      15.30943794      15.28149633      15.26336645      15.25057298      15.24288378      15.23816920      15.23787528      15.24206119      15.24923319      15.25613509      15.26398207      15.27422990      15.28883810      15.30524094      15.32194129      15.33648562      15.34832995
        15.35928040      15.37376018      15.39038401      15.40598465      15.42080375      15.43546725      15.44839933      15.45878676      15.46598794      15.47091593      15.47890193      15.48794893      15.49642707      15.50546936      15.51572980      15.52830846      15.54490702      15.56260701      15.57683147      15.58293587
        15.08409064      15.08251201      15.07973961      15.07670923      15.07339004      15.06990286      15.06667307      15.06335777      15.05972542      15.05566148      15.05183708      15.04867907      15.04619427      15.04373486      15.04184117      15.04070039      15.04017975      15.04004899      15.03998626      15.04016459
        15.04095236      15.04209410      15.04353866      15.04528141      15.04749466      15.05017529      15.05341265      15.05758464      15.06274326      15.06936986      15.07800139      15.08856972      15.10031509      15.11347984      15.12700239      15.13983015      15.15187317      15.16307925      15.17326570      15.18216772
        15.19153089      15.20203304      15.21406076      15.22936684      15.24936130      15.27300403      15.29925394      15.32968302      15.36571692      15.40577627      15.44770902      15.48980961      15.53034382      15.56555435      15.59370756      15.61022593      15.61381169      15.60365131      15.57957327      15.54682019
        15.51592579      15.48369043      15.44707524      15.40703835      15.37182997      15.34684246      15.33129148      15.32255783      15.31816140      15.31795281      15.32175447      15.32870995      15.33636867      15.34557596      15.35615765      15.37122438      15.39000622      15.40992701      15.42705249      15.44249075
        15.45581182      15.47088474      15.48748685      15.50464537      15.51986883      15.53363557      15.54391031      15.55317923      15.56191297      15.56824848      15.57563504      15.58652640      15.59847384      15.61070625      15.62315324      15.63919432      15.65838162      15.68101492      15.69967372      15.70883706
        15.09610206      15.09425389      15.09141594      15.08818359      15.08501812      15.08143897      15.07798182      15.07468139      15.07103127      15.06688196      15.06269697      15.05904234      15.05611379      15.05335192      15.05083708      15.04905517      15.04792425      15.04743131      15.04740663      15.04760843
        15.04829613      15.04958430      15.05128831      15.05325694      15.05584947      15.05912988      15.06312155      15.06811003      15.07426297      15.08219309      15.09257149      15.10496983      15.11890867      15.13442221      15.14983814      15.16455608      15.17877638      15.19215784      15.20405138      15.21490948
        15.22661084      15.23939300      15.25469813      15.27374009      15.29755088      15.32544573      15.35584312      15.38886048      15.42601166      15.46675140      15.50992827      15.55383779      15.59612626      15.63565094      15.66941234      15.69110563      15.69926657      15.69420654      15.67655702      15.64778309
        15.61658807      15.58639409      15.55035092      15.50790732      15.46726144      15.43489438      15.41433709      15.40441921      15.40194574      15.40255315      15.40655664      15.41376432      15.42301741      15.43445389      15.44795776      15.46461916      15.48512131      15.50583291      15.52402540      15.54105789
        15.55606137      15.57018605      15.58515497      15.60144110      15.61690457      15.62936865      15.63939320      15.64661940      15.65348208      15.66133049      15.66882067      15.67921998      15.69272711      15.70787406      15.72346275      15.74356298      15.76510687      15.78974663      15.81010379      15.82320239
        15.10790445      15.10584479      15.10296842      15.09964483      15.09651490      15.09314906      15.08949461      15.08605918      15.08244488      15.07830629      15.07384336      15.06973674      15.06622185      15.06312044      15.06012693      15.05777589      15.05607561      15.05515627      15.05507126      15.05537093
        15.05603106      15.05740755      15.05927152      15.06154860      15.06458882      15.06850437      15.07328075      15.07904892      15.08617080      15.09523343      15.10692287      15.12104649      15.13755561      15.15551736      15.17283253      15.18943366      15.20560974      15.22072495      15.23435905      15.24765562
        15.26190412      15.27728057      15.29578620      15.31866909      15.34623565      15.37766633      15.41101127      15.44672598      15.48527670      15.52656551      15.56954745      15.61270367      15.65530904      15.69710079      15.73430889      15.76164009      15.77525251      15.77557999      15.76503867      15.74381005
        15.71594578      15.68824714      15.65490853      15.61357843      15.57092176      15.53321179      15.50605114      15.49175732      15.49027839      15.49289850      15.49850239      15.50645853      15.51748845      15.53132638      15.54901897      15.56908028      15.59105480      15.61224665      15.63073780      15.64695550
        15.66196560      15.67390569      15.68661580      15.70086532      15.71519920      15.72589744      15.73490500      15.74102732      15.74580485      15.75306534      15.76152591      15.77225764      15.78537586      15.80167963      15.82090675      15.84328422      15.86635519      15.89003640      15.91149202      15.92650943
        15.11980869      15.11763846      15.11471236      15.11139968      15.10806073      15.10469357      15.10106027      15.09730758      15.09376596      15.08975910      15.08513263      15.08051490      15.07646380      15.07286696      15.06955361      15.06671660      15.06461368      15.06322020      15.06288145      15.06324833
        15.06401577      15.06542863      15.06753847      15.07032409      15.07393792      15.07839589      15.08389697      15.09048210      15.09841073      15.10816490      15.12073503      15.13636557      15.15521483      15.17549924      15.19518441      15.21412789      15.23221829      15.24892709      15.26432936      15.28012825
        15.29671976      15.31510940      15.33650604      15.36286892      15.39408608      15.42833480      15.46424671      15.50268468      15.54279789      15.58426297      15.62598463      15.66707977      15.70883806      15.75060905      15.78926595      15.82117172      15.84134669      15.84885468      15.84561448      15.83195766
        15.81000791      15.78505806      15.75644447      15.71936113      15.67909188      15.64001332      15.60813771      15.58768377      15.58198409      15.58526474      15.59309218      15.60307014      15.61706104      15.63457286      15.65575687      15.67815912      15.70125277      15.72338179      15.74165429      15.75674461
        15.77120412      15.78170704      15.79209159      15.80392655      15.81470588      15.82224005      15.82823445      15.83425044      15.83921573      15.84604151      15.85511830      15.86623358      15.87927894      15.89557421      15.91631937      15.93932814      15.96321544      15.98550213      16.00663321      16.02106162
        15.13171865      15.12950198      15.12648468      15.12323105      15.11974918      15.11618166      15.11268723      15.10882712      15.10492988      15.10087940      15.09625026      15.09117812      15.08671527      15.08264942      15.07911899      15.07599033      15.07357436      15.07190246      15.07107388      15.07128694
        15.07216026      15.07370648      15.07611117      15.07945526      15.08368773      15.08879705      15.09490055      15.10223057      15.11062979      15.12095040      15.13406022      15.15079313      15.17138373      15.19395506      15.21620713      15.23768673      15.25807211      15.27672309      15.29415272      15.31227476
        15.33120649      15.35191884      15.37603166      15.40538795      15.43920648      15.47596156      15.51476966      15.55545975      15.59703004      15.63803174      15.67833369      15.71745336      15.75725459      15.79727860      15.83572835      15.87041670      15.89761372      15.91481526      15.92075244      15.91474393
        15.89960629      15.87881064      15.85565129      15.82445145      15.78909851      15.75153124      15.71696928      15.69239026      15.67882781      15.67895551      15.68771248      15.70032193      15.71675790      15.73855108      15.76274585      15.78759326      15.81171145      15.83320523      15.85190692      15.86600323
        15.87826930      15.88866174      15.89718461      15.90681330      15.91387934      15.91702195      15.91973262      15.92484690      15.93168327      15.93886304      15.94983245      15.96138529      15.97518952      15.99213992      16.01165311      16.03238979      16.05472052      16.07721211      16.09784231      16.11264199
        15.14341026      15.14122543      15.13807737      15.13481406      15.13136897      15.12771092      15.12426076      15.12050170      15.11617257      15.11175711      15.10705121      15.10177742      15.09688222      15.09265743      15.08883964      15.08560597      15.08304632      15.08127244      15.08008117      15.07989195
        15.08088439      15.08272650      15.08546697      15.08921899      15.09396064      15.09970476      15.10641001      15.11420638      15.12297728      15.13373476      15.14736557      15.16477366      15.18655515      15.21110316      15.23593287      15.25978588      15.28259726      15.30333109      15.32306441      15.34333073
        15.36467502      15.38775531      15.41430847      15.44555525      15.48118021      15.52022361      15.56221627      15.60518647      15.64732521      15.68729567      15.72547466      15.76275723      15.80024302      15.83846127      15.87646164      15.91320843      15.94695182      15.97435334      15.99113340      15.99531774
        15.98936085      15.97569117      15.95707536      15.93364674      15.90374825      15.86980595      15.83382286      15.80615219      15.78659667      15.77992981      15.78470880      15.79809807      15.81548966      15.83903471      15.86600300      15.89383954      15.91833008      15.93955239      15.95712927      15.97054775
        15.97982413      15.98934677      15.99659896      16.00318577      16.00730108      16.00807959      16.00892715      16.01256093      16.02094310      16.03004513      16.04408079      16.05869201      16.07405610      16.09010300      16.10638441      16.12324737      16.14270885      16.16465944      16.18538966      16.20013871
        15.15501747      15.15278526      15.14949391      15.14605526      15.14265310      15.13906104      15.13553212      15.13191302      15.12752942      15.12281213      15.11796036      15.11274492      15.10742065      15.10304837      15.09914536      15.09578504      15.09307835      15.09128275      15.09007954      15.08965981
        15.09064641      15.09290795      15.09606781      15.10012066      15.10519585      15.11128563      15.11851510      15.12658787      15.13579629      15.14694091      15.16104134      15.17879952      15.20116019      15.22716033      15.25434294      15.28047025      15.30536920      15.32818669      15.35013913      15.37247308
        15.39631256      15.42145846      15.44963882      15.48297008      15.52074737      15.56193600      15.60660040      15.65123033      15.69298545      15.73119671      15.76737177      15.80263539      15.83857034      15.87562553      15.91348417      15.95260558      15.99147937      16.02803561      16.05637481      16.07449745
        16.08222508      16.07947018      16.06687662      16.04985477      16.02574192      15.99775816      15.96319665      15.93208161      15.90925467      15.89466606      15.89064892      15.89974394      15.91659014      15.93854345      15.96562646      15.99493671      16.01949618      16.04019167      16.05567114      16.06829843
        16.07574920      16.08315605      16.08911028      16.09227397      16.09373557      16.09436616      16.09504322      16.09937938      16.10842631      16.12130827      16.13760088      16.15570360      16.17218704      16.18662280      16.19954272      16.21311473      16.23066378      16.25081010      16.27010534      16.28341509
        15.16641792      15.16414589      15.16065459      15.15691730      15.15337467      15.14985946      15.14615992      15.14259535      15.13844350      15.13370484      15.12889161      15.12396936      15.11874784      15.11405866      15.11017833      15.10682953      15.10412525      15.10222171      15.10103938      15.10068437
        15.10162880      15.10416459      15.10763151      15.11202031      15.11732837      15.12372181      15.13125597      15.13947871      15.14897320      15.16063401      15.17519307      15.19318075      15.21549391      15.24235136      15.27121873      15.29933731      15.32602922      15.35094239      15.37471187      15.39880063
        15.42432385      15.45120707      15.48174284      15.51785719      15.55761326      15.60049746      15.64658258      15.69160984      15.73217049      15.76834977      15.80238010      15.83617943      15.87158416      15.90832492      15.94719177      15.98809477      16.03138815      16.07572596      16.11556278      16.14968572
        16.17501885      16.18622558      16.18371273      16.17329446      16.15526664      16.13323264      16.10397140      16.07234243      16.04711929      16.02561518      16.01196991      16.01183364      16.02529758      16.04371076      16.06697890      16.09399961      16.11794853      16.13555672      16.14933321      16.16019901
        16.16711125      16.17216958      16.17705447      16.17877068      16.17833127      16.17828077      16.17989674      16.18651124      16.19739845      16.21272802      16.22970136      16.24804964      16.26473766      16.27858777      16.29005906      16.30172074      16.31750512      16.33666012      16.35452951      16.36647235
        15.17749004      15.17530504      15.17160703      15.16748346      15.16359545      15.15989445      15.15603604      15.15232660      15.14834243      15.14390568      15.13935768      15.13490059      15.13035583      15.12581596      15.12199410      15.11883014      15.11632157      15.11433348      15.11329789      15.11313815
        15.11423944      15.11670891      15.12028133      15.12505896      15.13067129      15.13734194      15.14474555      15.15304009      15.16294898      15.17515841      15.19014862      15.20831806      15.23041604      15.25716711      15.28720792      15.31726221      15.34548141      15.37198083      15.39696713      15.42223494
        15.44936174      15.47842100      15.51176622      15.55063426      15.59250910      15.63620643      15.68143201      15.72510319      15.76378907      15.79799724      15.83030818      15.86352918      15.89893514      15.93670669      15.97628478      16.01771133      16.06430777      16.11545611      16.16661402      16.21633981
        16.25950551      16.28700083      16.29904525      16.29834937      16.28702438      16.26915708      16.24670834      16.21702546      16.19033347      16.16571035      16.14490238      16.13661633      16.14190833      16.15645388      16.17404959      16.19455509      16.21502725      16.22782710      16.23792239      16.24639873
        16.25289925      16.25688567      16.26019824      16.26128006      16.26057975      16.26050136      16.26339126      16.27113608      16.28363809      16.29900045      16.31500691      16.33130888      16.34779863      16.36207044      16.37442497      16.38686002      16.40158356      16.41950516      16.43655010      16.44753279
        15.18819401      15.18603147      15.18208681      15.17741483      15.17311114      15.16910590      15.16504275      15.16102015      15.15695455      15.15276387      15.14872557      15.14489470      15.14118974      15.13741164      15.13399342      15.13125751      15.12914727      15.12742111      15.12673753      15.12695590
        15.12823327      15.13062724      15.13427448      15.13924378      15.14511915      15.15184345      15.15933114      15.16795464      15.17813515      15.19076743      15.20601755      15.22436124      15.24640645      15.27291201      15.30354633      15.33467866      15.36397302      15.39139581      15.41695423      15.44306836
        15.47197898      15.50377025      15.53995668      15.58118300      15.62399433      15.66697903      15.71042312      15.75222727      15.78907855      15.82169146      15.85262175      15.88505102      15.92083675      15.95924676      15.99876742      16.04035120      16.08935126      16.14685922      16.20835815      16.27223857
        16.33244458      16.37732291      16.40463076      16.41580325      16.41380194      16.40099002      16.38353129      16.35731304      16.32881149      16.30498966      16.28329219      16.26805721      16.26445345      16.27347026      16.28671898      16.29930929      16.31118149      16.31829471      16.32297815      16.32774767
        16.33271269      16.33599292      16.33744119      16.33799823      16.33887966      16.34064687      16.34534708      16.35331608      16.36477594      16.37929846      16.39360763      16.40778308      16.42313161      16.43880835      16.45352484      16.46924945      16.48497533      16.50084735      16.51587767      16.52573730
        15.19891575      15.19642946      15.19210887      15.18685335      15.18195094      15.17765262      15.17348807      15.16912670      15.16482171      15.16062366      15.15689905      15.15371452      15.15080271      15.14805475      15.14543870      15.14336921      15.14197237      15.14106026      15.14086009      15.14162644
        15.14319544      15.14589454      15.14967564      15.15459808      15.16067214      15.16767274      15.17556579      15.18435223      15.19481638      15.20782571      15.22328101      15.24181559      15.26382009      15.29020335      15.32058737      15.35155870      15.38129587      15.40926285      15.43524843      15.46215649
        15.49287218      15.52749788      15.56581356      15.60771022      15.65002575      15.69221948      15.73434033      15.77404489      15.80901005      15.84026244      15.86983631      15.90120766      15.93630157      15.97448770      16.01436770      16.05694895      16.10816863      16.17156256      16.24254095      16.31840018
        16.39420022      16.45584568      16.49737095      16.52107327      16.52921899      16.52472114      16.51174733      16.49063514      16.46278062      16.43897662      16.41876172      16.40114159      16.39115533      16.39234408      16.40009154      16.40459562      16.40648056      16.40766320      16.40678618      16.40675459
        16.40845893      16.40914980      16.40873264      16.40875848      16.41127453      16.41620162      16.42326179      16.43195393      16.44229474      16.45564382      16.46866147      16.48237014      16.49604320      16.51208905      16.52943025      16.54766517      16.56497189      16.58057568      16.59266885      16.60054105
        15.21007295      15.20704414      15.20219175      15.19639885      15.19072721      15.18597593      15.18175933      15.17730320      15.17278860      15.16852319      15.16474433      15.16182701      15.15953814      15.15774851      15.15616133      15.15501098      15.15440540      15.15454564      15.15512749      15.15662974
        15.15893063      15.16217235      15.16630145      15.17139208      15.17753794      15.18475997      15.19320840      15.20247235      15.21340242      15.22666930      15.24228583      15.26086492      15.28292420      15.30920729      15.33880945      15.36896090      15.39853060      15.42672406      15.45323480      15.48103775
        15.51319750      15.54958307      15.58922595      15.63071132      15.67167753      15.71320094      15.75420398      15.79145747      15.82466954      15.85433486      15.88264038      15.91289729      15.94619823      15.98329954      16.02365906      16.06831517      16.12251108      16.19160120      16.27199959      16.35850619
        16.44791330      16.52486759      16.57973373      16.61386454      16.63163917      16.63620597      16.62940707      16.61308823      16.58847701      16.56546699      16.54648796      16.53023802      16.51781316      16.51108490      16.51031753      16.50851706      16.50260301      16.49718864      16.49180158      16.48659977
        16.48380858      16.48140813      16.47836375      16.47661808      16.47959297      16.48725768      16.49660465      16.50720337      16.51839046      16.53029473      16.54278320      16.55616580      16.56948885      16.58472934      16.60377443      16.62299819      16.64166752      16.65759700      16.66804413      16.67367768
        15.22199953      15.21860168      15.21313862      15.20669631      15.20015685      15.19473112      15.19031706      15.18594743      15.18131154      15.17689012      15.17295661      15.16992001      15.16797174      15.16690918      15.16633095      15.16622473      15.16656846      15.16750443      15.16911419      15.17154786
        15.17485388      15.17873516      15.18342572      15.18896084      15.19545387      15.20316958      15.21225861      15.22212015      15.23344176      15.24707021      15.26300635      15.28177650      15.30387252      15.32980500      15.35830531      15.38759369      15.41697347      15.44477279      15.47171553      15.50059457