# File generated by Flopy version 3.6.0 on 11/07/2024 at 09:09:40.
BEGIN griddata
  strt
    INTERNAL  FACTOR  1.0
        15.00000000      15.00000000      15.00000000      15.00000000      15.00000000      15.00000000      15.00000000      15.00000000      15.00000000      15.00000000      15.00000000      15.00000000      15.00000000      15.00000000      15.00000000      15.00000000      15.00000000      15.00000000      15.00000000      15.00000000
        15.00000000      15.00000000      15.00000000      15.00000000      15.00000000      15.00000000      15.00000000      15.00000000      15.00000000      15.00000000      15.00000000      15.00000000      15.00000000      15.00000000      15.00000000      15.00000000      15.00000000      15.00000000      15.00000000      15.00000000
        15.00000000      15.00000000      15.00000000      15.00000000      15.00000000      15.00000000      15.00000000      15.00000000      15.00000000      15.00000000      15.00000000      15.00000000      15.00000000      15.00000000      15.00000000      15.00000000      15.00000000      15.00000000      15.00000000      15.00000000
        15.00000000      15.00000000      15.00000000      15.00000000      15.00000000      15.00000000      15.00000000      15.00000000      15.00000000      15.00000000      15.00000000      15.00000000      15.00000000      15.00000000      15.00000000      15.00000000      15.00000000      15.00000000      15.00000000      15.00000000
        15.00000000      15.00000000      15.00000000      15.00000000      15.00000000      15.00000000      15.00000000      15.00000000      15.00000000      15.00000000      15.00000000      15.00000000      15.00000000      15.00000000      15.00000000      15.00000000      15.00000000      15.00000000      15.00000000      15.00000000
        15.03103112      15.03220231      15.03454805      15.03773016      15.04093364      15.04301353      15.04122240      15.03653856      15.03103788      15.02508106      15.02000475      15.01568411      15.01234364      15.01031764      15.00910911      15.00794107      15.00657834      15.00502249      15.00367251      15.00270545
        15.00193754      15.00136681      15.00100945      15.00081453      15.00068424      15.00058890      15.00051949      15.00047118      15.00044443      15.00042706      15.00040791      15.00038577      15.00035841      15.00033093      15.00031141      15.00029596      15.00027567      15.00025242      15.00022216      15.00018925
        15.00016286      15.00014049      15.00011888      15.00010400      15.00010139      15.00010450      15.00011734      15.00014948      15.00021297      15.00031696      15.00046882      15.00069320      15.00103132      15.00154699      15.00227795      15.00319422      15.00422892      15.00547015      15.00703917      15.00890645
        15.01104377      15.01371276      15.01651627      15.01911695      15.02073325      15.02132781      15.02149363      15.02118024      15.02014225      15.01856199      15.01730638      15.01623013      15.01543522      15.01527473      15.01528493      15.01547273      15.01620625      15.01731722      15.01859083      15.01989522
        15.02063114      15.02011210      15.01904275      15.01733168      15.01593882      15.01521128      15.01511825      15.01532135      15.01528813      15.01539740      15.01543683      15.01569282      15.01636437      15.01707703      15.01809360      15.01931990      15.02009461      15.02044630      15.02062020      15.02037560
        15.04868737      15.05044976      15.05374918      15.05832021      15.06348176      15.06706932      15.06528411      15.05824163      15.04975197      15.04087677      15.03279924      15.02630067      15.02107500      15.01754119      15.01535731      15.01352328      15.01144500      15.00905989      15.00677906      15.00503163
        15.00368544      15.00267865      15.00202200      15.00163358      15.00138166      15.00118948      15.00104825      15.00094821      15.00088373      15.00084081      15.00079907      15.00075289      15.00070201      15.00064686      15.00059801      15.00056311      15.00052466      15.00047288      15.00041201      15.00034178
        15.00027891      15.00022774      15.00018083      15.00014494      15.00012965      15.00012992      15.00014851      15.00019761      15.00029678      15.00046539      15.00072639      15.00111902      15.00169781      15.00256340      15.00382975      15.00547810      15.00743369      15.00974087      15.01257473      15.01608921
        15.02016260      15.02480471      15.02974116      15.03455599      15.03836720      15.04024755      15.04096276      15.04097705      15.03985640      15.03799277      15.03611541      15.03441666      15.03313353      15.03271112      15.03289500      15.03349300      15.03477344      15.03634873      15.03818203      15.04029591
        15.04168966      15.04154501      15.04020658      15.03790304      15.03526168      15.03324063      15.03223837      15.03231603      15.03246086      15.03248775      15.03247492      15.03259251      15.03354193      15.03473300      15.03640600      15.03857658      15.04026901      15.04133480      15.04171440      15.04157899
        15.05391993      15.05588771      15.05980415      15.06482835      15.07013309      15.07379273      15.07265548      15.06556499      15.05636671      15.04716677      15.03859609      15.03145642      15.02573258      15.02163074      15.01899057      15.01696186      15.01465833      15.01197429      15.00934272      15.00708086
        15.00530016      15.00394651      15.00305594      15.00248915      15.00211534      15.00182666      15.00159393      15.00142817      15.00131793      15.00123797      15.00116763      15.00109048      15.00101432      15.00093708      15.00086345      15.00080026      15.00073874      15.00065446      15.00055321      15.00044169
        15.00033704      15.00024784      15.00017114      15.00011081      15.00007536      15.00006082      15.00007303      15.00012613      15.00024118      15.00044676      15.00078324      15.00129963      15.00204705      15.00314281      15.00474894      15.00694527      15.00970418      15.01303315      15.01695619      15.02175583
        15.02736524      15.03374384      15.04066094      15.04753078      15.05347414      15.05724279      15.05917844      15.05995158      15.05966086      15.05820024      15.05612384      15.05430387      15.05265212      15.05184235      15.05213461      15.05325106      15.05496973      15.05670370      15.05866416      15.06110728
        15.06298481      15.06348463      15.06234120      15.06007799      15.05668820      15.05348077      15.05151499      15.05099462      15.05124202      15.05133664      15.05129041      15.05132169      15.05222343      15.05366546      15.05571705      15.05818896      15.06054138      15.06216115      15.06275005      15.06298889
        15.04886305      15.05054667      15.05444937      15.05905138      15.06349623      15.06652497      15.06600263      15.06055392      15.05272082      15.04472863      15.03725712      15.03090222      15.02589466      15.02234205      15.01998589      15.01825412      15.01627946      15.01376629      15.01121968      15.00880651
        15.00676887      15.00519674      15.00411483      15.00339396      15.00288963      15.00250120      15.00217290      15.00191675      15.00173880      15.00161239      15.00150833      15.00139590      15.00128865      15.00118908      15.00109259      15.00099557      15.00089691      15.00077118      15.00062172      15.00046475
        15.00031783      15.00018692      15.00007312      14.99998512      14.99992617      14.99988752      14.99988178      14.99993213      15.00005328      15.00027676      15.00065891      15.00126201      15.00213484      15.00338388      15.00519762      15.00777502      15.01125188      15.01555156      15.02045309      15.02617650
        15.03304033      15.04106487      15.04976762      15.05870078      15.06677747      15.07284177      15.07662160      15.07885114      15.07994449      15.07945778      15.07751481      15.07555337      15.07371814      15.07266451      15.07283590      15.07417007      15.07601660      15.07783939      15.07981858      15.08218994
        15.08440246      15.08538138      15.08482069      15.08273635      15.07934173      15.07546442      15.07289094      15.07152093      15.07145208      15.07198325      15.07249237      15.07292225      15.07372928      15.07500039      15.07658135      15.07868522      15.08117983      15.08313224      15.08412115      15.08469897
        15.03543974      15.03671134      15.03950574      15.04295613      15.04628678      15.04899660      15.04936202      15.04627344      15.04089132      15.03502931      15.02950628      15.02502263      15.02172212      15.01939334      15.01800166      15.01701786      15.01587984      15.01415205      15.01216407      15.01006956
        15.00805750      15.00638254      15.00517673      15.00431962      15.00368475      15.00318924      15.00277001      15.00241672      15.00215091      15.00195552      15.00180240      15.00165092      15.00150670      15.00137788      15.00125295      15.00111844      15.00097100      15.00079310      15.00059450      15.00039095
        15.00019894      15.00002190      14.99986735      14.99974815      14.99966356      14.99960055      14.99957719      14.99962191      14.99974481      14.99997713      15.00037980      15.00104512      15.00202589      15.00338037      15.00527825      15.00811830      15.01217942      15.01729341      15.02310343      15.02975278
        15.03766144      15.04703589      15.05748291      15.06847422      15.07891643      15.08733587      15.09342520      15.09768371      15.10067689      15.10189401      15.10079548      15.09877074      15.09682292      15.09549619      15.09530918      15.09637301      15.09816848      15.10007209      15.10212418      15.10438056
        15.10654788      15.10807738      15.10842539      15.10702191      15.10395880      15.10020643      15.09687519      15.09465871      15.09397842      15.09487247      15.09624498      15.09738376      15.09829868      15.09917286      15.09976708      15.10095710      15.10299163      15.10518830      15.10671908      15.10723054
        15.01634142      15.01712524      15.01870182      15.02096968      15.02349377      15.02604593      15.02700387      15.02602730      15.02345131      15.02051348      15.01755959      15.01523223      15.01392514      15.01309102      15.01284191      15.01300052      15.01313885      15.01282086      15.01196822      15.01065529
        15.00909280      15.00750352      15.00622626      15.00527077      15.00451218      15.00389088      15.00336427      15.00290553      15.00254136      15.00225503      15.00202790      15.00182600      15.00164116      15.00147278      15.00130939      15.00113167      15.00092853      15.00068943      15.00043438      15.00018031
        14.99993737      14.99971147      14.99951348      14.99935629      14.99924562      14.99916744      14.99914507      14.99918652      14.99931353      14.99955286      14.99995911      15.00065681      15.00172425      15.00318273      15.00511888      15.00806064      15.01249651      15.01824208      15.02488284      15.03243985
        15.04128345      15.05182787      15.06381648      15.07693695      15.08978330      15.10106913      15.11016842      15.11709901      15.12268905      15.12605595      15.12650657      15.12445878      15.12247100      15.12119445      15.12058930      15.12089022      15.12245594      15.12464488      15.12692252      15.12928550
        15.13116800      15.13290062      15.13432985      15.13444621      15.13216590      15.12859566      15.12438462      15.12097901      15.11926685      15.12004372      15.12204828      15.12400799      15.12531027      15.12593405      15.12602819      15.12604126      15.12694058      15.12899787      15.13083870      15.13152999
        14.99403301      14.99439918      14.99528354      14.99686831      14.99884071      15.00102974      15.00273868      15.00327152      15.00319779      15.00325100      15.00312928      15.00300787      15.00340163      15.00424308      15.00518368      15.00653978      15.00816334      15.00958785      15.01035103      15.01030857
        15.00963663      15.00848035      15.00724740      15.00622353      15.00535514      15.00458675      15.00391414      15.00332799      15.00285032      15.00245728      15.00213546      15.00187214      15.00164276      15.00143041      15.00121869      15.00098517      15.00070963      15.00039040      15.00006262      14.99974882
        14.99946080      14.99920047      14.99896905      14.99877944      14.99863973      14.99855659      14.99854578      14.99859399      14.99873448      14.99898335      14.99939899      15.00010586      15.00123191      15.00277876      15.00476764      15.00771971      15.01233270      15.01842870      15.02553244      15.03375341
        15.04350367      15.05518139      15.06863025      15.08357033      15.09886897      15.11362978      15.12628534      15.13658372      15.14559804      15.15186957      15.15465774      15.15369395      15.15113180      15.14963407      15.14866945      15.14827107      15.14923679      15.15172436      15.15434068      15.15689237
        15.15862685      15.16056169      15.16296182      15.16454829      15.16406798      15.16069213      15.15587651      15.15099089      15.14783891      15.14764369      15.14980110      15.15246693      15.15435920      15.15510470      15.15514362      15.15429363      15.15385223      15.15481979      15.15672155      15.15774611
        14.96943311      14.97002365      14.97089075      14.97223694      14.97361597      14.97545890      14.97804877      14.98037342      14.98249978      14.98478582      14.98708388      14.98932726      14.99123738      14.99368083      14.99606503      14.99855639      15.00150987      15.00465795      15.00720199      15.00873458
        15.00933640      15.00901174      15.00809556      15.00710439      15.00614665      15.00523511      15.00438441      15.00362714      15.00300605      15.00248835      15.00206446      15.00172723      15.00144681      15.00118463      15.00090539      15.00059666      15.00023563      14.99982738      14.99942122      14.99904434
        14.99872120      14.99843972      14.99819753      14.99799629      14.99783189      14.99774580      14.99774878      14.99782309      14.99797533      14.99823676      14.99867189      14.99938679      15.00054664      15.00217154      15.00424227      15.00718715      15.01172681      15.01787168      15.02517107      15.03367032
        15.04404227      15.05674594      15.07176372      15.08862646      15.10662620      15.12456299      15.14089487      15.15519817      15.16845936      15.17897361      15.18530026      15.18718547      15.18464976      15.18189623      15.18029035      15.17908574      15.17911647      15.18115783      15.18412096      15.18646284
        15.18844154      15.19124336      15.19451536      15.19687463      15.19745885      15.19517260      15.19053292      15.18501221      15.18090821      15.17920677      15.18091920      15.18382702      15.18608788      15.18686069      15.18635151      15.18484123      15.18352192      15.18285004      15.18408186      15.18530216
        14.94410942      14.94501021      14.94619536      14.94747848      14.94852845      14.95059513      14.95364102      14.95776113      14.96195541      14.96605496      14.97003658      14.97441188      14.97823201      14.98212546      14.98605045      14.98973866      14.99371119      14.99817316      15.00239312      15.00558471
        15.00772507      15.00867937      15.00851294      15.00777762      15.00681787      15.00577502      15.00475637      15.00379235      15.00297721      15.00230357      15.00175462      15.00131477      15.00095109      15.00061400      15.00025383      14.99983991      14.99938409      14.99888947      14.99841351      14.99797646
        14.99762076      14.99734443      14.99711290      14.99693207      14.99677016      14.99669418      14.99672786      14.99683046      14.99699420      14.99727486      14.99771702      14.99845101      14.99962371      15.00128907      15.00345690      15.00641097      15.01077483      15.01668857      15.02397898      15.03266033
        15.04337222      15.05682829      15.07337736      15.09245675      15.11314884      15.13410434      15.15402398      15.17283290      15.19109995      15.20695759      15.21804748      15.22404376      15.22393216      15.21997770      15.21665823      15.21434328      15.21314345      15.21406885      15.21669071      15.21852518
        15.22091248      15.22446425      15.22801682      15.23064205      15.23133705      15.23030672      15.22683657      15.22197596      15.21740651      15.21493739      15.21568820      15.21858909      15.22043704      15.22070881      15.21931199      15.21703061      15.21468004      15.21252841      15.21205267      15.21265959
        14.91817531      14.91931961      14.92049976      14.92170494      14.92319288      14.92554581      14.92881793      14.93399944      14.93994802      14.94606547      14.95163786      14.95753402      14.96358960      14.96920667      14.97473452      14.97990423      14.98498775      14.99039542      14.99600477      15.00089499
        15.00474087      15.00730256      15.00831652      15.00816977      15.00737051      15.00623351      15.00503104      15.00382151      15.00274592      15.00185667      15.00112983      15.00054048      15.00004862      14.99960674      14.99913460      14.99857198      14.99798701      14.99741272      14.99688107      14.99640001
        14.99604876      14.99582038      14.99563082      14.99549959      14.99539805      14.99537352      14.99545454      14.99557375      14.99575296      14.99605672      14.99651440      14.99725235      14.99843868      15.00010059      15.00229852      15.00523162      15.00938389      15.01508456      15.02238840      15.03121710
        15.04201249      15.05578904      15.07351977      15.09493805      15.11854018      15.14266208      15.16647257      15.19019897      15.21401470      15.23599237      15.25330814      15.26525797      15.26964585      15.26586691      15.25993479      15.25577045      15.25280815      15.25187559      15.25329313      15.25487669
        15.25695450      15.26029985      15.26351610      15.26600313      15.26725381      15.26680519      15.26481976      15.26129977      15.25669780      15.25379450      15.25364074      15.25580591      15.25710045      15.25671097      15.25493495      15.25221119      15.24839342      15.24451351      15.24182136      15.24048853
        14.89254559      14.89381635      14.89487994      14.89609864      14.89812685      14.90075031      14.90419519      14.90910701      14.91546275      14.92325642      14.93092062      14.93813124      14.94614385      14.95415601      14.96184698      14.96904074      14.97573932      14.98222189      14.98896801      14.99532362
        15.00075566      15.00500415      15.00748030      15.00824885      15.00778222      15.00659140      15.00517676      15.00368220      15.00228492      15.00111185      15.00014990      14.99936755      14.99871182      14.99810279      14.99745262      14.99670429      14.99592390      14.99522498      14.99463500      14.99414283
        14.99384089      14.99368291      14.99363961      14.99362805      14.99365966      14.99374527      14.99386771      14.99402356      14.99423209      14.99455419      14.99505835      14.99579673      14.99696418      14.99861178      15.00075996      15.00359622      15.00751324      15.01303926      15.02040302      15.02944528
        15.04033349      15.05411170      15.07262637      15.09599423      15.12259345      15.15054902      15.17880226      15.20806291      15.23821276      15.26710104      15.29334140      15.31241894      15.32179449      15.31987040      15.31205364      15.30497209      15.29971562      15.29615052      15.29527419      15.29638170
        15.29757187      15.29974346      15.30215314      15.30388531      15.30549145      15.30580780      15.30533168      15.30285075      15.29909717      15.29535859      15.29403964      15.29480354      15.29559027      15.29499454      15.29306378      15.28986255      15.28505323      15.27956590      15.27494200      15.27232203
        14.86913143      14.86992438      14.87092385      14.87197941      14.87387077      14.87656400      14.88010015      14.88434545      14.88961796      14.89757632      14.90738166      14.91653985      14.92589591      14.93627903      14.94676268      14.95684260      14.96591992      14.97418689      14.98212557      14.98978077
        14.99654325      15.00221483      15.00612298      15.00797097      15.00803042      15.00685668      15.00520183      15.00336486      15.00160147      15.00007766      14.99883291      14.99780509      14.99692127      14.99605334      14.99512391      14.99411034      14.99307100      14.99216718      14.99146215      14.99098127
        14.99072479      14.99069100      14.99089891      14.99115895      14.99142097      14.99166240      14.99186310      14.99210984      14.99239106      14.99272785      14.99326633      14.99402853      14.99516001      14.99677690      14.99887165      15.00158516      15.00524098      15.01050692      15.01795663      15.02734184
        15.03842120      15.05232579      15.07115826      15.09577205      15.12511344      15.15769666      15.19133345      15.22659589      15.26357426      15.30091095      15.33734238      15.36468988      15.37943753      15.38055357      15.37209487      15.36136882      15.35319145      15.34721766      15.34323215      15.34226855
        15.34225948      15.34209964      15.34273648      15.34359054      15.34451598      15.34536750      15.34582657      15.34418517      15.34170101      15.33752680      15.33450932      15.33348487      15.33345093      15.33275169      15.33054141      15.32677490      15.32188806      15.31601199      15.31021476      15.30732962
        14.84795255      14.84793344      14.84834229      14.84888918      14.85026239      14.85244035      14.85561379      14.85966461      14.86409145      14.87077610      14.88088315      14.89193006      14.90256117      14.91495193      14.92833939      14.94188643      14.95434888      14.96538047      14.97518538      14.98425786
        14.99232249      14.99928055      15.00450258      15.00741672      15.00810786      15.00704939      15.00515525      15.00292914      15.00073909      14.99880526      14.99719522      14.99584345      14.99464576      14.99341513      14.99208255      14.99071368      14.98939774      14.98824716      14.98732334      14.98678617
        14.98654280      14.98664022      14.98716768      14.98786131      14.98851933      14.98900152      14.98936760      14.98974920      14.99014736      14.99053393      14.99105171      14.99181376      14.99292698      14.99450899      14.99656925      14.99923944      15.00274093      15.00770160      15.01499596      15.02479366
        15.03639571      15.05065013      15.06979986      15.09522028      15.12701329      15.16417915      15.20420180      15.24618920      15.29019570      15.33673276      15.38351677      15.42135166      15.44257900      15.44825103      15.44023520      15.42633911      15.41388106      15.40496421      15.39758284      15.39298015
        15.39072792      15.38808457      15.38631768      15.38553970      15.38460298      15.38449040      15.38502052      15.38446467      15.38278978      15.37891486      15.37430990      15.37137400      15.36980403      15.36830395      15.36616389      15.36258258      15.35787779      15.35253060      15.34717743      15.34409587
        14.82851845      14.82786587      14.82717512      14.82704215      14.82774351      14.82929068      14.83168457      14.83528192      14.83936326      14.84442671      14.85268446      14.86397650      14.87594084      14.88947344      14.90550272      14.92293485      14.93967879      14.95446500      14.96731033      14.97838967
        14.98812001      14.99642546      15.00288021      15.00677624      15.00808053      15.00718527      15.00508225      15.00244654      14.99974536      14.99731183      14.99525885      14.99351604      14.99190560      14.99022130      14.98842467      14.98667104      14.98498990      14.98349478      14.98227685      14.98150813
        14.98125350      14.98146008      14.98227625      14.98350634      14.98475460      14.98567348      14.98633780      14.98689359      14.98740369      14.98788443      14.98838896      14.98912694      14.99023709      14.99176193      14.99377791      14.99648925      15.00004520      15.00480937      15.01185393      15.02170047
        15.03405509      15.04915892      15.06904180      15.09551466      15.12941596      15.17050587      15.21653931      15.26583333      15.31828035      15.37435403      15.43260931      15.48241997      15.51253781      15.52352320      15.51765510      15.50222280      15.48387383      15.46931865      15.45697501      15.44837725
        15.44277209      15.43788859      15.43348188      15.43041855      15.42756632      15.42513335      15.42427128      15.42448910      15.42264851      15.41868964      15.41313178      15.40843075      15.40493862      15.40198142      15.39990678      15.39725533      15.39338893      15.38892544      15.38488028      15.38210443
        14.81065414      14.80943041      14.80773627      14.80662178      14.80674097      14.80777020      14.80943801      14.81214937      14.81556092      14.81921951      14.82519260      14.83476055      14.84712568      14.86126133      14.87869641      14.89959155      14.92160293      14.94097522      14.95771945      14.97162800
        14.98354729      14.99354629      15.00117344      15.00601727      15.00789900      15.00719648      15.00492522      15.00185876      14.99860023      14.99559366      14.99302731      14.99084875      14.98877350      14.98657643      14.98428127      14.98203036      14.97987790      14.97791117      14.97627778      14.97512810
        14.97479151      14.97516060      14.97620393      14.97793917      14.97985554      14.98138818      14.98249163      14.98333137      14.98400611      14.98462391      14.98521865      14.98597989      14.98710192      14.98860874      14.99052419      14.99317679      14.99692329      15.00177707      15.00869663      15.01853081
        15.03129431      15.04754248      15.06881853      15.09665710      15.13251151      15.17722253      15.22871437      15.28547986      15.34736822      15.41419464      15.48370280      15.54659617      15.58944099      15.60731807      15.60476779      15.58758530      15.56155970      15.53927404      15.52044066      15.50711212
        15.49714309      15.48977443      15.48314841      15.47790827      15.47325783      15.46835025      15.46476860      15.46326008      15.46065327      15.45581861      15.44943134      15.44350166      15.43864447      15.43456574      15.43173281      15.42995815      15.42788473      15.42469271      15.42147882      15.41952553
        14.79445866      14.79283452      14.79053947      14.78864370      14.78800544      14.78828883      14.78940083      14.79108998      14.79357333      14.79639431      14.80084720      14.80833114      14.81938022      14.83338051      14.85093561      14.87334486      14.90004868      14.92530181      14.94623767      14.96339573
        14.97788475      14.99011563      14.99912568      15.00488848      15.00736173      15.00692589      15.00455884      15.00102057      14.99714011      14.99353375      14.99044471      14.98776778      14.98516512      14.98245852      14.97960540      14.97675043      14.97401522      14.97144747      14.96924207      14.96776972
        14.96731437      14.96784355      14.96901798      14.97106074      14.97353531      14.97582562      14.97754021      14.97879454      14.97977441      14.98064706      14.98145346      14.98234415      14.98350624      14.98505868      14.98695610      14.98945604      14.99315157      14.99822345      15.00529142      15.01523158
        15.02830758      15.04541573      15.06842082      15.09876046      15.13683034      15.18427796      15.24115090      15.30563131      15.37698588      15.45430360      15.53579099      15.61344689      15.67023529      15.69850933      15.70096462      15.68282855      15.64988376      15.61682035      15.58954294      15.56887051
        15.55378452      15.54332047      15.53489001      15.52758583      15.52087542      15.51378877      15.50707846      15.50141849      15.49680832      15.49099203      15.48314747      15.47588948      15.47046658      15.46617966      15.46268219      15.46122926      15.46042496      15.45883817      15.45665550      15.45542017
        14.77969030      14.77796601      14.77539550      14.77316020      14.77170615      14.77108872      14.77149573      14.77241259      14.77404894      14.77631655      14.77975329      14.78566432      14.79493468      14.80803296      14.82464242      14.84669200      14.87535063      14.90612824      14.93212021      14.95316801
        14.97068558      14.98521248      14.99596156      15.00278994      15.00591046      15.00587250      15.00358650      14.99964816      14.99516614      14.99097765      14.98731580      14.98404920      14.98092071      14.97770775      14.97430383      14.97081238      14.96731789      14.96401102      14.96127705      14.95966085