# File generated by Flopy version 3.7.0 on 08/01/2024 at 16:45:39.
BEGIN options
  PRINT_OPTION  summary
  COMPLEXITY  complex
END options

BEGIN linear
  LINEAR_ACCELERATION  bicgstab
END linear

