# File generated by Flopy version 3.6.0 on 10/29/2024 at 11:23:18.
BEGIN griddata
  strt
    INTERNAL  FACTOR  1.0
        15.00000000      15.00000000      15.00000000      15.00000000      15.00000000      15.00000000      15.00000000      15.00000000      15.00000000      15.00000000      15.00000000      15.00000000      15.00000000      15.00000000      15.00000000      15.00000000      15.00000000      15.00000000      15.00000000      15.00000000
        15.00000000      15.00000000      15.00000000      15.00000000      15.00000000      15.00000000      15.00000000      15.00000000      15.00000000      15.00000000      15.00000000      15.00000000      15.00000000      15.00000000      15.00000000      15.00000000      15.00000000      15.00000000      15.00000000      15.00000000
        15.00000000      15.00000000      15.00000000      15.00000000      15.00000000      15.00000000      15.00000000      15.00000000      15.00000000      15.00000000      15.00000000      15.00000000      15.00000000      15.00000000      15.00000000      15.00000000      15.00000000      15.00000000      15.00000000      15.00000000
        15.00000000      15.00000000      15.00000000      15.00000000      15.00000000      15.00000000      15.00000000      15.00000000      15.00000000      15.00000000      15.00000000      15.00000000      15.00000000      15.00000000      15.00000000      15.00000000      15.00000000      15.00000000      15.00000000      15.00000000
        15.00000000      15.00000000      15.00000000      15.00000000      15.00000000      15.00000000      15.00000000      15.00000000      15.00000000      15.00000000      15.00000000      15.00000000      15.00000000      15.00000000      15.00000000      15.00000000      15.00000000      15.00000000      15.00000000      15.00000000
        15.11250377      15.11176400      15.11124018      15.11027149      15.10680967      15.10093539      15.09188592      15.08336204      15.07491185      15.06545593      15.05749604      15.04950976      15.04288717      15.03861699      15.03513139      15.03014146      15.02414411      15.01822586      15.01362683      15.01045926
        15.00795179      15.00617890      15.00509951      15.00454611      15.00419040      15.00397881      15.00388749      15.00388345      15.00396088      15.00405336      15.00408701      15.00410795      15.00406055      15.00398185      15.00395961      15.00399223      15.00400936      15.00415555      15.00434709      15.00464494
        15.00510490      15.00562332      15.00619792      15.00696054      15.00780354      15.00851735      15.00922598      15.01008692      15.01104396      15.01185337      15.01239690      15.01294649      15.01362967      15.01438982      15.01508489      15.01571830      15.01635410      15.01741003      15.01891786      15.02044877
        15.02229607      15.02490555      15.02758018      15.02971025      15.03045621      15.03009573      15.02934644      15.02813870      15.02602996      15.02338500      15.02125930      15.01937861      15.01785887      15.01714183      15.01666793      15.01641563      15.01679681      15.01753945      15.01842699      15.01934342
        15.01974987      15.01901109      15.01780971      15.01602124      15.01448588      15.01356145      15.01320968      15.01313832      15.01287025      15.01274539      15.01258630      15.01261746      15.01299680      15.01341859      15.01409419      15.01495549      15.01550809      15.01576161      15.01589475      15.01570976
        15.21523343      15.21382648      15.21097083      15.20884524      15.20578913      15.19804990      15.18277172      15.16587078      15.15014531      15.13316197      15.11682605      15.10238333      15.08955230      15.07976128      15.07208790      15.06277385      15.05153351      15.04021957      15.03020017      15.02293983
        15.01755103      15.01374794      15.01133088      15.00997328      15.00917726      15.00864889      15.00839978      15.00835591      15.00846246      15.00864614      15.00875667      15.00883322      15.00880267      15.00862978      15.00846220      15.00852936      15.00866083      15.00891711      15.00937040      15.00993825
        15.01069111      15.01172845      15.01285126      15.01410542      15.01560486      15.01699094      15.01838724      15.01993628      15.02158027      15.02286326      15.02371375      15.02468443      15.02594773      15.02730747      15.02868188      15.02993584      15.03126658      15.03321798      15.03615878      15.03957475
        15.04327812      15.04757241      15.05199156      15.05574744      15.05799018      15.05793826      15.05681827      15.05522630      15.05220159      15.04835425      15.04464228      15.04119031      15.03827736      15.03653383      15.03561603      15.03522602      15.03567137      15.03640391      15.03739711      15.03869207
        15.03939651      15.03875572      15.03708732      15.03454133      15.03162699      15.02929056      15.02788117      15.02744415      15.02708076      15.02666260      15.02626551      15.02600770      15.02644348      15.02709818      15.02815902      15.02965093      15.03084762      15.03161629      15.03189925      15.03180433
        15.30712662      15.30601884      15.30181866      15.29875137      15.29536002      15.28710378      15.26978062      15.24687742      15.22483994      15.20274157      15.18019169      15.16007746      15.14222705      15.12628431      15.11350675      15.09994158      15.08325283      15.06632930      15.05094930      15.03861362
        15.02956504      15.02315077      15.01913166      15.01667883      15.01526176      15.01434240      15.01376587      15.01361910      15.01376715      15.01400436      15.01420969      15.01429696      15.01427065      15.01405158      15.01379761      15.01380925      15.01408607      15.01448219      15.01512656      15.01589509
        15.01681706      15.01812159      15.01962123      15.02127571      15.02318627      15.02525503      15.02735298      15.02941876      15.03136894      15.03291361      15.03411313      15.03539323      15.03699839      15.03890284      15.04091353      15.04280648      15.04491055      15.04788647      15.05201760      15.05709605
        15.06232951      15.06793295      15.07389499      15.07913866      15.08298262      15.08416636      15.08347455      15.08187380      15.07896963      15.07458695      15.06955247      15.06492361      15.06059617      15.05751766      15.05593972      15.05542198      15.05574259      15.05612408      15.05675436      15.05791156
        15.05870688      15.05838556      15.05667444      15.05395520      15.05017996      15.04659009      15.04409565      15.04287317      15.04233164      15.04173809      15.04110803      15.04059334      15.04081853      15.04152620      15.04275786      15.04438481      15.04601513      15.04716461      15.04759760      15.04778781
        15.38880467      15.38883906      15.38611451      15.38353604      15.37931274      15.36937689      15.35019123      15.32404779      15.29750930      15.27242198      15.24755405      15.22365701      15.20157547      15.18108440      15.16250556      15.14450791      15.12200608      15.09818607      15.07710831      15.05892580
        15.04495258      15.03518638      15.02899546      15.02516652      15.02286601      15.02146238      15.02051638      15.02009000      15.02010246      15.02036686      15.02070201      15.02075644      15.02064704      15.02042856      15.02017653      15.02009192      15.02038672      15.02092082      15.02158901      15.02242900
        15.02348208      15.02490289      15.02666697      15.02855762      15.03076478      15.03338250      15.03604257      15.03834897      15.04039347      15.04214357      15.04364819      15.04521389      15.04715279      15.04957093      15.05219169      15.05474406      15.05779172      15.06182541      15.06680553      15.07282944
        15.07950780      15.08666187      15.09402796      15.10089107      15.10627507      15.10923604      15.10970460      15.10885769      15.10657523      15.10221187      15.09606440      15.09004090      15.08439665      15.08001597      15.07738813      15.07633324      15.07618124      15.07611781      15.07623970      15.07684430
        15.07756938      15.07741463      15.07600894      15.07327175      15.06933833      15.06498906      15.06172099      15.05949319      15.05839854      15.05789423      15.05747864      15.05707572      15.05705129      15.05748832      15.05825404      15.05951689      15.06118524      15.06253889      15.06325246      15.06368851
        15.46279723      15.46293983      15.46280131      15.46088785      15.45603400      15.44452412      15.42450154      15.39664853      15.36769353      15.34065727      15.31500987      15.28947009      15.26415083      15.24136038      15.21871704      15.19623659      15.16870492      15.13771374      15.10971048      15.08531336
        15.06499084      15.05051665      15.04145761      15.03576074      15.03224645      15.03017551      15.02888772      15.02813942      15.02789269      15.02801920      15.02840138      15.02841901      15.02811366      15.02784309      15.02761997      15.02748479      15.02770431      15.02822614      15.02883507      15.02958450
        15.03066628      15.03219062      15.03410959      15.03617889      15.03859430      15.04147488      15.04431830      15.04669221      15.04884316      15.05073776      15.05253829      15.05445531      15.05681640      15.05974181      15.06297506      15.06623210      15.07026234      15.07520230      15.08090005      15.08763092
        15.09546176      15.10400097      15.11288505      15.12141932      15.12867524      15.13330787      15.13548104      15.13607524      15.13495440      15.13136483      15.12485264      15.11736281      15.11029310      15.10441790      15.10032408      15.09808321      15.09720142      15.09664175      15.09627706      15.09625002
        15.09653213      15.09657834      15.09573951      15.09339879      15.08958129      15.08513649      15.08098633      15.07778526      15.07587965      15.07536397      15.07537466      15.07530857      15.07519447      15.07520502      15.07514898      15.07566012      15.07692515      15.07840485      15.07948258      15.07986383
        15.52715136      15.52746530      15.52827108      15.52663288      15.52118287      15.50941079      15.49068918      15.46412745      15.43448729      15.40534533      15.37830390      15.35266850      15.32591661      15.30146075      15.27789153      15.25221366      15.22125359      15.18503140      15.15001681      15.11891679
        15.09166650      15.07060657      15.05736209      15.04918766      15.04402508      15.04097237      15.03926940      15.03826189      15.03777127      15.03762397      15.03786889      15.03774651      15.03711722      15.03663258      15.03630945      15.03609420      15.03628191      15.03675168      15.03731763      15.03793150
        15.03890585      15.04036706      15.04229242      15.04452257      15.04702511      15.04986424      15.05248346      15.05486216      15.05699737      15.05898673      15.06116556      15.06350919      15.06626629      15.06957586      15.07327684      15.07733125      15.08232157      15.08832810      15.09488885      15.10220792
        15.11060666      15.12018316      15.13049251      15.14097311      15.15032569      15.15734652      15.16186005      15.16447606      15.16523290      15.16290724      15.15685110      15.14769022      15.13890843      15.13157241      15.12572229      15.12162702      15.11969583      15.11871752      15.11792834      15.11742371
        15.11700744      15.11687082      15.11664172      15.11531504      15.11193883      15.10746134      15.10243155      15.09805229      15.09503920      15.09410211      15.09432350      15.09465701      15.09466410      15.09437520      15.09387188      15.09346641      15.09385841      15.09518097      15.09643978      15.09693870
        15.58245139      15.58300738      15.58357056      15.58163613      15.57621671      15.56549615      15.54757081      15.52323590      15.49490757      15.46492381      15.43575648      15.40962574      15.38387298      15.35810730      15.33476379      15.30897741      15.27668527      15.23786915      15.19780301      15.16014729
        15.12601237      15.09746975      15.07808282      15.06629936      15.05897498      15.05449451      15.05195775      15.05059981      15.04996672      15.04967388      15.04957498      15.04911248      15.04809108      15.04706080      15.04651694      15.04613943      15.04620945      15.04659741      15.04711473      15.04767821
        15.04844375      15.04959896      15.05132081      15.05350876      15.05604605      15.05864968      15.06096698      15.06319750      15.06520597      15.06733617      15.06968433      15.07232698      15.07535567      15.07895999      15.08297006      15.08776404      15.09377040      15.10072470      15.10803423      15.11583998
        15.12465858      15.13494609      15.14640403      15.15863419      15.17022727      15.18066777      15.18827029      15.19361061      15.19710314      15.19669205      15.19183758      15.18203772      15.17042270      15.16102717      15.15338913      15.14737009      15.14384564      15.14231391      15.14111491      15.14014643
        15.13911686      15.13869015      15.13884003      15.13839712      15.13625639      15.13183211      15.12624623      15.12056855      15.11616065      15.11412551      15.11414811      15.11476081      15.11502794      15.11471267      15.11409782      15.11304746      15.11246079      15.11297906      15.11423781      15.11495026
        15.63183234      15.63151253      15.63103574      15.62852758      15.62355737      15.61392035      15.59674214      15.57328029      15.54635846      15.51771240      15.48820706      15.46043832      15.43569429      15.41000548      15.38598549      15.36142561      15.33069918      15.29189440      15.24971613      15.20798235
        15.16793138      15.13203617      15.10500309      15.08808495      15.07749224      15.07113191      15.06716548      15.06502070      15.06423387      15.06393770      15.06344233      15.06265072      15.06126555      15.05962278      15.05869813      15.05804533      15.05770662      15.05776117      15.05807203      15.05851246
        15.05899812      15.05978188      15.06105940      15.06292717      15.06535490      15.06770852      15.06977213      15.07168802      15.07363416      15.07576872      15.07808897      15.08083696      15.08409413      15.08794637      15.09224805      15.09762624      15.10432176      15.11180946      15.11952389      15.12772297
        15.13702483      15.14795414      15.16048524      15.17425452      15.18841062      15.20193973      15.21309679      15.22190290      15.22902534      15.23198595      15.22942037      15.22089410      15.20693985      15.19387719      15.18386306      15.17566156      15.17003650      15.16707934      15.16537467      15.16359961
        15.16224367      15.16197626      15.16235096      15.16217937      15.16069618      15.15706882      15.15158717      15.14532361      15.13993303      15.13641085      15.13573393      15.13623667      15.13658777      15.13619575      15.13516525      15.13366301      15.13247397      15.13186380      15.13263124      15.13344868
        15.67506523      15.67401878      15.67246466      15.66956732      15.66487907      15.65558608      15.63993191      15.61713741      15.59087890      15.56343263      15.53537659      15.50695077      15.48129674      15.45618618      15.43139442      15.40723122      15.37918874      15.34328099      15.30139330      15.25823055
        15.21511740      15.17331054      15.13870445      15.11512177      15.09997359      15.09078761      15.08508645      15.08159711      15.08017956      15.07975884      15.07915815      15.07831316      15.07694194      15.07501813      15.07345797      15.07253844      15.07160713      15.07093413      15.07060274      15.07064338
        15.07076041      15.07099534      15.07175280      15.07308630      15.07514693      15.07715505      15.07882698      15.08047041      15.08235631      15.08437653      15.08672494      15.08945514      15.09288050      15.09696370      15.10155279      15.10727092      15.11413425      15.12162578      15.12944761      15.13804189
        15.14789382      15.15945690      15.17310076      15.18849691      15.20504367      15.22131350      15.23593395      15.24890761      15.26036945      15.26777917      15.26858919      15.26263578      15.24896127      15.23180701      15.21786317      15.20702075      15.19892359      15.19378132      15.19087233      15.18806933
        15.18642347      15.18617449      15.18636200      15.18612528      15.18456524      15.18177330      15.17711949      15.17122791      15.16528323      15.16085946      15.15910673      15.15929844      15.15921179      15.15842408      15.15679751      15.15480309      15.15295174      15.15137786      15.15099964      15.15138923
        15.71378672      15.71236990      15.71060076      15.70762120      15.70240561      15.69363827      15.67987925      15.65905173      15.63368772      15.60649139      15.57959035      15.55214281      15.52458095      15.49869735      15.47313307      15.44830048      15.42187948      15.39019127      15.35145419      15.30909525
        15.26513108      15.21977410      15.17865043      15.14765946      15.12684681      15.11359860      15.10566193      15.10044934      15.09787318      15.09701776      15.09655431      15.09587740      15.09479651      15.09283844      15.09075365      15.08951032      15.08813292      15.08648654      15.08514470      15.08439748
        15.08382044      15.08329589      15.08340811      15.08410703      15.08541788      15.08680774      15.08803688      15.08955336      15.09132280      15.09323774      15.09551266      15.09825252      15.10178160      15.10610560      15.11103081      15.11682357      15.12344161      15.13062627      15.13858867      15.14753700
        15.15780183      15.16989320      15.18456612      15.20184462      15.22069587      15.23965152      15.25769856      15.27505192      15.29130538      15.30378724      15.30900153      15.30667329      15.29516649      15.27573433      15.25691595      15.24248306      15.23136286      15.22333462      15.21847240      15.21476776
        15.21224042      15.21130664      15.21087574      15.21027974      15.20891817      15.20641108      15.20271819      15.19768378      15.19155550      15.18651101      15.18377623      15.18320612      15.18265918      15.18141201      15.17954578      15.17728685      15.17452955      15.17188362      15.17009247      15.16922941
        15.74785975      15.74635163      15.74465261      15.74167139      15.73613459      15.72790039      15.71586739      15.69870202      15.67638015      15.64983991      15.62251346      15.59638922      15.56839882      15.54023342      15.51279319      15.48618322      15.45949271      15.43064428      15.39604965      15.35667781
        15.31433363      15.26799629      15.22252437      15.18478244      15.15743308      15.13924816      15.12812677      15.12109738      15.11698063      15.11543474      15.11494400      15.11443647      15.11354417      15.11189109      15.10967186      15.10790904      15.10634130      15.10411478      15.10174391      15.09990068
        15.09831974      15.09696225      15.09591080      15.09567530      15.09596677      15.09655633      15.09750374      15.09882154      15.10040863      15.10222049      15.10428825      15.10704984      15.11077857      15.11539995      15.12065446      15.12639726      15.13267108      15.13955626      15.14757589      15.15683778
        15.16744507      15.17984761      15.19548986      15.21443835      15.23550775      15.25729682      15.27897314      15.30085685      15.32206375      15.33995026      15.35165842      15.35326193      15.34438597      15.32489884      15.30210263      15.28299049      15.26834337      15.25671477      15.24887377      15.24403319
        15.24024251      15.23792553      15.23655607      15.23516467      15.23382034      15.23166136      15.22881463      15.22439027      15.21871780      15.21292061      15.20917760      15.20752439      15.20658987      15.20520613      15.20326001      15.20074463      15.19742157      15.19381588      15.19083968      15.18917629
        15.77594945      15.77507297      15.77345969      15.77079595      15.76588525      15.75839836      15.74764657      15.73359500      15.71596180      15.69283775      15.66540507      15.63911844      15.61232467      15.58299594      15.55303970      15.52323037      15.49443756      15.46556016      15.43400651      15.39768071
        15.35811636      15.31337714      15.26665357      15.22449455      15.19106086      15.16725477      15.15212822      15.14263770      15.13678401      15.13415042      15.13331134      15.13293157      15.13229198      15.13122187      15.12940147      15.12736065      15.12550953      15.12309985      15.12010542      15.11709245
        15.11452664      15.11211257      15.10964321      15.10795232      15.10704828      15.10685903      15.10743650      15.10833783      15.10959779      15.11130952      15.11327611      15.11610110      15.12014042      15.12499343      15.13032148      15.13587872      15.14182790      15.14854066      15.15659478      15.16604516
        15.17685062      15.18947857      15.20566080      15.22562544      15.24863222      15.27363337      15.29901522      15.32529243      15.35139668      15.37552540      15.39485823      15.40166926      15.39537728      15.37704984      15.35177411      15.32741622      15.30860367      15.29362158      15.28218271      15.27495600
        15.26974211      15.26537075      15.26247244      15.26021742      15.25816895      15.25613656      15.25373863      15.24977367      15.24483731      15.23873334      15.23381117      15.23096285      15.22950347      15.22808194      15.22601199      15.22320423      15.21988447      15.21608501      15.21242542      15.21060801
        15.79907576      15.79904778      15.79803675      15.79598029      15.79200606      15.78580563      15.77666613      15.76454057      15.75047134      15.73261969      15.70847949      15.68244989      15.65708945      15.62812248      15.59657298      15.56360888      15.53120430      15.49975969      15.46836421      15.43387857
        15.39632125      15.35382731      15.30765696      15.26374460      15.22585074      15.19681292      15.17738963      15.16450374      15.15652345      15.15247477      15.15107788      15.15080614      15.15054901      15.15012307      15.14900483      15.14705115      15.14478431      15.14210672      15.13894958      15.13522056
        15.13183212      15.12847177      15.12467069      15.12128260      15.11888306      15.11781543      15.11776330      15.11817417      15.11906306      15.12061591      15.12274163      15.12577618      15.12994638      15.13478044      15.13990762      15.14515298      15.15089690      15.15747452      15.16541425      15.17497378
        15.18585026      15.19867236      15.21501863      15.23557326      15.26028491      15.28840404      15.31790815      15.34852496      15.37939541      15.41008409      15.43679983      15.45057992      15.44740887      15.43103242      15.40457184      15.37571397      15.35167422      15.33302939      15.31809327      15.30750393
        15.30025338      15.29392311      15.28914093      15.28559302      15.28217121      15.27932375      15.27681529      15.27340621      15.26893347      15.26310708      15.25728956      15.25331163      15.25096660      15.24912900      15.24716348      15.24452271      15.24135941      15.23792067      15.23456588      15.23263968
        15.81845055      15.81890915      15.81885137      15.81747584      15.81443708      15.80947205      15.80223690      15.79218998      15.78052284      15.76743468      15.74933548      15.72641790      15.70251720      15.67595217      15.64434805      15.60886874      15.57249299      15.53742025      15.50320900      15.46842471
        15.43100443      15.39003185      15.34478122      15.30035206      15.26013711      15.22688260      15.20314839      15.18672487      15.17604628      15.17016308      15.16787046      15.16748349      15.16764571      15.16777342      15.16725927      15.16548342      15.16313360      15.16032017      15.15708647      15.15335617
        15.14938457      15.14537456      15.14067936      15.13573255      15.13163946      15.12929500      15.12834632      15.12827131      15.12891705      15.13030667      15.13262158      15.13581678      15.13991547      15.14468215      15.14955608      15.15445553      15.15981239      15.16617257      15.17388910      15.18342611
        15.19451752      15.20764306      15.22425965      15.24540451      15.27143431      15.30203453      15.33534116      15.37034059      15.40633225      15.44293119      15.47689963      15.49814237      15.49967854      15.48563951      15.45984646      15.42832658      15.39829043      15.37428454      15.35520468      15.34129686
        15.33142057      15.32346531      15.31686409      15.31175717      15.30700800      15.30255125      15.29900307      15.29589117      15.29134758      15.28568105      15.27953213      15.27466215      15.27130168      15.26869041      15.26682814      15.26479740      15.26217552      15.25929365      15.25674167      15.25500715
        15.83473248      15.83549930      15.83609729      15.83555265      15.83327798      15.82930312      15.82366095      15.81586075      15.80648422      15.79686551      15.78435701      15.76711279      15.74615557      15.72270063      15.69375773      15.65794773      15.61759029      15.57894905      15.54118006      15.50414942
        15.46525429      15.42368528      15.37927956      15.33427463      15.29273129      15.25688902      15.22921324      15.20927846      15.19584767      15.18776572      15.18392750      15.18284437      15.18310597      15.18363888      15.18357203      15.18221778      15.18000648      15.17740352      15.17434157      15.17098425
        15.16688883      15.16231588      15.15715500      15.15116099      15.14557043      15.14175563      15.13974793      15.13904833      15.13941355      15.14061987      15.14283287      15.14598346      15.15000219      15.15456501      15.15914857      15.16367889      15.16866527      15.17471862      15.18228120      15.19189638
        15.20323797      15.21680070      15.23392580      15.25555094      15.28252748      15.31499560      15.35118759      15.39020628      15.43124743      15.47350007      15.51344321      15.54238341      15.55165916      15.54139790      15.51698918      15.48324618      15.44696828      15.41668159      15.39276430      15.37535898
        15.36259550      15.35305401      15.34502408      15.33847800      15.33255556      15.32648935      15.32107641      15.31681829      15.31197006      15.30607396      15.29978339      15.29447074      15.29049323      15.28733990      15.28511320      15.28365686      15.28212661      15.28002064      15.27797546      15.27672343
        15.84822105      15.84906323      15.84985376      15.84984514      15.84837453      15.84540914      15.84090562      15.83501015      15.82771497      15.82027422      15.81136265      15.79917497      15.78301816      15.76339053      15.73889189      15.70658654      15.66510962      15.62190020      15.58126563      15.54173332
        15.50131243      15.45740905      15.41239066      15.36733030      15.32467097      15.28701892      15.25590527      15.23231826      15.21612621      15.20590145      15.20002879      15.19768084      15.19746609      15.19792622      15.19818924      15.19744619      15.19563502      15.19337675      15.19078294      15.18767644
        15.18375770      15.17889743      15.17363285      15.16732560      15.16083359      15.15554972      15.15233541      15.15086394      15.15070013      15.15149480      15.15335084      15.15623612      15.16003090      15.16425423      15.16848640      15.17278082      15.17767086      15.18357800      15.19123140      15.20086808
        15.21228877      15.22605000      15.24366042      15.26622608      15.29387850      15.32718224      15.36576064      15.40846368      15.45402334      15.50119369      15.54701194      15.58396759      15.60140408      15.59721342      15.57525496      15.54047110      15.49916967      15.46120628      15.43177664      15.40973327
        15.39387428      15.38243080      15.37330074      15.36548606      15.35829497      15.35086069      15.34350344      15.33683357      15.33099315      15.32489784      15.31819125      15.31246531      15.30838396      15.30524403      15.30272751      15.30151704      15.30077132      15.29962993      15.29819238      15.29734985
        15.85944046      15.86010396      15.86078293      15.86085769      15.86001898      15.85796711      15.85444477      15.84980992      15.84416117      15.83821939      15.83160340      15.82289496      15.81113009      15.79559254      15.77615132      15.74954217      15.71196641      15.66647668      15.62250749      15.58052016
        15.53842471      15.49311069      15.44613858      15.40017336      15.35676665      15.31806062      15.28413511      15.25645195      15.23683162      15.22458796      15.21689848      15.21291562      15.21165007      15.21151592      15.21167118      15.21133001      15.21019172      15.20847129      15.20623988      15.20318490