# File generated by Flopy version 3.7.0 on 06/28/2024 at 11:45:31.
BEGIN options
END options

BEGIN dimensions
  MAXBOUND  7355
END dimensions

BEGIN period  1
  1 1 1.09313046E-08
  1 2 1.22748093E-08
  1 3 1.24172914E-08
  1 4 1.16735211E-08
  1 5 1.16202109E-08
  1 6 1.17671177E-08
  1 7 1.19363365E-08
  1 8 1.13364776E-08
  1 9 1.07878140E-08
  1 10 1.11866683E-08
  1 11 1.26567310E-08
  1 12 1.38368126E-08
  1 13 1.51666741E-08
  1 14 1.69672210E-08
  1 15 1.82404505E-08
  1 16 1.96114735E-08
  1 17 1.97257396E-08
  1 18 2.20199792E-08
  1 19 2.42167717E-08
  1 20 2.59654456E-08
  1 21 2.90931353E-08
  1 22 3.15687154E-08
  1 23 3.58525455E-08
  1 24 3.69697321E-08
  1 25 3.83150804E-08
  1 26 3.53349807E-08
  1 27 2.90158562E-08
  1 28 2.37023766E-08
  1 29 2.07161474E-08
  1 30 1.90379951E-08
  1 31 1.82359126E-08
  1 32 1.93654840E-08
  1 33 2.04007983E-08
  1 34 2.00230374E-08
  1 35 1.85450061E-08
  1 36 1.79671810E-08
  1 37 1.61850407E-08
  1 38 1.39931103E-08
  1 39 1.27419508E-08
  1 40 1.21410301E-08
  1 41 1.18234069E-08
  1 42 1.17000374E-08
  1 43 1.11475367E-08
  1 44 1.08562277E-08
  1 45 1.09384957E-08
  1 46 1.15225163E-08
  1 47 1.37420258E-08
  1 48 1.58124052E-08
  1 49 1.69453411E-08
  1 50 1.81734977E-08
  1 51 1.81954806E-08
  1 52 1.95902792E-08
  1 53 2.05084499E-08
  1 54 1.98390399E-08
  1 55 1.78023884E-08
  1 56 1.66469135E-08
  1 57 1.68990087E-08
  1 58 1.76221265E-08
  1 59 1.96851616E-08
  1 60 1.99987570E-08
  1 61 1.95564535E-08
  1 62 2.15904215E-08
  1 63 2.34578559E-08
  1 64 2.41509864E-08
  1 65 2.19025353E-08
  1 66 2.01606314E-08
  1 67 1.84757414E-08
  1 68 1.68596592E-08
  1 69 1.66235478E-08
  1 70 1.73726868E-08
  1 71 1.82663436E-08
  1 72 1.98047312E-08
  1 73 1.99090235E-08
  1 74 1.84817263E-08
  1 75 1.61457573E-08
  1 76 1.44118511E-08
  1 77 1.31854556E-08
  1 78 1.22919185E-08
  1 79 1.30105761E-08
  1 80 1.21962732E-08
  1 81 1.12549438E-08
  1 82 1.10535944E-08
  1 83 1.09208141E-08
  1 84 1.11269500E-08
  1 85 1.13703071E-08
  1 86 1.26886285E-08
  1 87 1.38183588E-08
  1 88 1.53365557E-08
  1 89 1.57886263E-08
  1 90 1.44532447E-08
  1 91 1.27505384E-08
  1 92 1.14929001E-08
  1 93 1.09523093E-08
  1 94 1.09920932E-08
  1 95 1.08619216E-08
  1 96 1.07979202E-08
  1 97 1.00985973E-08
  1 98 1.04111886E-08
  1 99 1.24735663E-08
  1 100 1.51707777E-08
  1 101 1.06235966E-08
  1 102 1.22144089E-08
  1 103 1.29346126E-08
  1 104 1.20389945E-08
  1 105 1.17958250E-08
  1 106 1.18752529E-08
  1 107 1.18672644E-08
  1 108 1.15549275E-08
  1 109 1.07046522E-08
  1 110 1.05460505E-08
  1 111 1.14653710E-08
  1 112 1.28063177E-08
  1 113 1.39113394E-08
  1 114 1.54784645E-08
  1 115 1.70497242E-08
  1 116 1.87088969E-08
  1 117 1.92587970E-08
  1 118 2.03448143E-08
  1 119 2.25988298E-08
  1 120 2.47696581E-08
  1 121 2.68794283E-08
  1 122 2.92282747E-08
  1 123 3.33028644E-08
  1 124 3.67220613E-08
  1 125 3.81794960E-08
  1 126 3.65613702E-08
  1 127 3.14087627E-08
  1 128 2.53960845E-08
  1 129 2.20912372E-08
  1 130 1.98803872E-08
  1 131 1.89777980E-08
  1 132 1.93467131E-08
  1 133 2.05638150E-08
  1 134 2.07926419E-08
  1 135 1.98001149E-08
  1 136 1.93884102E-08
  1 137 1.80312408E-08
  1 138 1.50608343E-08
  1 139 1.34879078E-08
  1 140 1.25179129E-08
  1 141 1.17407744E-08
  1 142 1.17952615E-08
  1 143 1.12239821E-08
  1 144 1.07135020E-08
  1 145 1.05312633E-08
  1 146 1.08231044E-08
  1 147 1.24562443E-08
  1 148 1.47655977E-08
  1 149 1.60521684E-08
  1 150 1.71765257E-08
  1 151 1.78293094E-08
  1 152 1.82127001E-08
  1 153 1.93014427E-08
  1 154 2.00162949E-08
  1 155 1.86462626E-08
  1 156 1.63924912E-08
  1 157 1.64310202E-08
  1 158 1.66737275E-08
  1 159 1.81294013E-08
  1 160 1.98292774E-08
  1 161 1.91875714E-08
  1 162 2.02746115E-08
  1 163 2.23616779E-08
  1 164 2.30880753E-08
  1 165 2.23836350E-08
  1 166 2.01701714E-08
  1 167 1.84056752E-08
  1 168 1.67409964E-08
  1 169 1.60469011E-08
  1 170 1.66647262E-08
  1 171 1.67063370E-08
  1 172 1.81246592E-08
  1 173 1.87008143E-08
  1 174 1.83840165E-08
  1 175 1.64400522E-08
  1 176 1.41879406E-08
  1 177 1.30975225E-08
  1 178 1.21589714E-08
  1 179 1.29040283E-08
  1 180 1.22029377E-08
  1 181 1.14057559E-08
  1 182 1.10230716E-08
  1 183 1.06799767E-08
  1 184 1.08744631E-08
  1 185 1.09675425E-08
  1 186 1.22615222E-08
  1 187 1.35322938E-08
  1 188 1.50292004E-08
  1 189 1.62259972E-08
  1 190 1.52498833E-08
  1 191 1.38577259E-08
  1 192 1.22995518E-08
  1 193 1.15135781E-08
  1 194 1.13538686E-08
  1 195 1.14333695E-08
  1 196 1.14754813E-08
  1 197 1.07590464E-08
  1 198 1.07953259E-08
  1 199 1.18401388E-08
  1 200 1.43500437E-08
  1 201 1.02096369E-08
  1 202 1.18045894E-08
  1 203 1.31507027E-08
  1 204 1.27106026E-08
  1 205 1.20292386E-08
  1 206 1.20921584E-08
  1 207 1.15659434E-08
  1 208 1.16898495E-08
  1 209 1.11142794E-08
  1 210 1.05328352E-08
  1 211 1.04681121E-08
  1 212 1.16383773E-08
  1 213 1.27267901E-08
  1 214 1.41312575E-08
  1 215 1.58124854E-08
  1 216 1.77406600E-08
  1 217 1.87338783E-08
  1 218 1.91170681E-08
  1 219 2.12976992E-08
  1 220 2.38075091E-08
  1 221 2.54852113E-08
  1 222 2.73656687E-08
  1 223 3.05298581E-08
  1 224 3.50124690E-08
  1 225 3.85046170E-08
  1 226 3.74012799E-08
  1 227 3.27735915E-08
  1 228 2.72020013E-08
  1 229 2.35483887E-08
  1 230 2.12637947E-08
  1 231 1.99494952E-08
  1 232 1.93556780E-08
  1 233 2.04344979E-08
  1 234 2.12791486E-08
  1 235 2.08633688E-08
  1 236 2.09373950E-08
  1 237 1.94492588E-08
  1 238 1.65830442E-08
  1 239 1.47019673E-08
  1 240 1.30976732E-08
  1 241 1.21506467E-08
  1 242 1.19372470E-08
  1 243 1.11426821E-08
  1 244 1.06242877E-08
  1 245 1.02007530E-08
  1 246 1.01033952E-08
  1 247 1.14328860E-08
  1 248 1.34643571E-08
  1 249 1.52905973E-08
  1 250 1.62385885E-08
  1 251 1.72518694E-08
  1 252 1.72858050E-08
  1 253 1.84503221E-08
  1 254 1.91278630E-08
  1 255 1.91674956E-08
  1 256 1.66597862E-08
  1 257 1.59472816E-08
  1 258 1.63463754E-08
  1 259 1.73016730E-08
  1 260 1.90054345E-08
  1 261 1.89583104E-08
  1 262 1.92795540E-08
  1 263 2.17563976E-08
  1 264 2.22179960E-08
  1 265 2.23628783E-08
  1 266 2.06165393E-08
  1 267 1.84410985E-08
  1 268 1.68307401E-08
  1 269 1.57159966E-08
  1 270 1.58103651E-08
  1 271 1.58330593E-08
  1 272 1.63738466E-08
  1 273 1.75450945E-08
  1 274 1.82513076E-08
  1 275 1.67414507E-08
  1 276 1.43646159E-08
  1 277 1.31425792E-08
  1 278 1.21578644E-08
  1 279 1.21048805E-08
  1 280 1.21457503E-08
  1 281 1.12014547E-08
  1 282 1.08035685E-08
  1 283 1.05203557E-08
  1 284 1.07349837E-08
  1 285 1.05527420E-08
  1 286 1.15046040E-08
  1 287 1.32500609E-08
  1 288 1.43521971E-08
  1 289 1.60726741E-08
  1 290 1.61811737E-08
  1 291 1.43797384E-08
  1 292 1.33226622E-08
  1 293 1.24868627E-08
  1 294 1.19057745E-08
  1 295 1.21578983E-08
  1 296 1.20429267E-08
  1 297 1.15387330E-08
  1 298 1.10633226E-08
  1 299 1.18524458E-08
  1 300 1.36778687E-08
  1 301 1.01097682E-08
  1 302 1.15952845E-08
  1 303 1.33498941E-08
  1 304 1.35114914E-08
  1 305 1.24117364E-08
  1 306 1.22407298E-08
  1 307 1.18096338E-08
  1 308 1.17198448E-08
  1 309 1.13358382E-08
  1 310 1.07386435E-08
  1 311 1.02284977E-08
  1 312 1.07060357E-08
  1 313 1.15223217E-08
  1 314 1.31220237E-08
  1 315 1.44707456E-08
  1 316 1.66445133E-08
  1 317 1.80961738E-08
  1 318 1.87531934E-08
  1 319 2.01247854E-08
  1 320 2.28993921E-08
  1 321 2.45350979E-08
  1 322 2.57959573E-08
  1 323 2.89202785E-08
  1 324 3.21400740E-08
  1 325 3.69783959E-08
  1 326 3.77435007E-08
  1 327 3.31051164E-08
  1 328 2.88074719E-08
  1 329 2.56991321E-08
  1 330 2.28936886E-08
  1 331 2.13852616E-08
  1 332 1.96494079E-08
  1 333 1.99762420E-08
  1 334 2.08893087E-08
  1 335 2.20349192E-08
  1 336 2.14103938E-08
  1 337 2.08877984E-08
  1 338 1.84993352E-08
  1 339 1.56114891E-08
  1 340 1.43238648E-08
  1 341 1.26266161E-08
  1 342 1.20980323E-08
  1 343 1.13669596E-08
  1 344 1.05907003E-08
  1 345 9.94466626E-09
  1 346 9.44209323E-09
  1 347 1.06146027E-08
  1 348 1.22758552E-08
  1 349 1.42381341E-08
  1 350 1.56512553E-08
  1 351 1.65042455E-08
  1 352 1.68671256E-08
  1 353 1.79320173E-08
  1 354 1.80177342E-08
  1 355 1.87415267E-08
  1 356 1.73190347E-08
  1 357 1.60501634E-08
  1 358 1.63565440E-08
  1 359 1.65791379E-08
  1 360 1.79289522E-08
  1 361 1.84133209E-08
  1 362 1.89560083E-08
  1 363 2.08991246E-08
  1 364 2.22115613E-08
  1 365 2.20263628E-08
  1 366 2.14487893E-08
  1 367 1.89543870E-08
  1 368 1.68817477E-08
  1 369 1.58644953E-08
  1 370 1.55806561E-08
  1 371 1.55970952E-08
  1 372 1.57285776E-08
  1 373 1.67144979E-08
  1 374 1.77919429E-08
  1 375 1.72077894E-08
  1 376 1.52337991E-08
  1 377 1.35993148E-08
  1 378 1.26983048E-08
  1 379 1.17353208E-08
  1 380 1.16612888E-08
  1 381 1.12472779E-08
  1 382 1.03537277E-08
  1 383 1.03629682E-08
  1 384 1.03105146E-08
  1 385 1.04175132E-08
  1 386 1.09956018E-08
  1 387 1.26864800E-08
  1 388 1.41648747E-08
  1 389 1.51827656E-08
  1 390 1.62925181E-08
  1 391 1.51046641E-08
  1 392 1.37868576E-08
  1 393 1.31563694E-08
  1 394 1.26753577E-08
  1 395 1.26864667E-08
  1 396 1.27274203E-08
  1 397 1.21655674E-08
  1 398 1.17837768E-08
  1 399 1.22855663E-08
  1 400 1.38989228E-08
  1 401 1.01501098E-08
  1 402 1.17017103E-08
  1 403 1.34026875E-08
  1 404 1.38388682E-08
  1 405 1.27801155E-08
  1 406 1.23762990E-08
  1 407 1.19455625E-08
  1 408 1.18267962E-08
  1 409 1.15737106E-08
  1 410 1.09330101E-08
  1 411 1.03712939E-08
  1 412 1.00219394E-08
  1 413 1.03753983E-08
  1 414 1.18692919E-08
  1 415 1.32389627E-08
  1 416 1.51472691E-08
  1 417 1.70350646E-08
  1 418 1.76066352E-08
  1 419 1.92555579E-08
  1 420 2.12655778E-08
  1 421 2.31893911E-08
  1 422 2.44632265E-08
  1 423 2.67661332E-08
  1 424 2.97516470E-08
  1 425 3.32294891E-08
  1 426 3.63266086E-08
  1 427 3.32088117E-08
  1 428 2.81642683E-08
  1 429 2.70824897E-08
  1 430 2.42246232E-08
  1 431 2.26760633E-08
  1 432 2.03423879E-08
  1 433 1.97929412E-08
  1 434 2.04255897E-08
  1 435 2.15575487E-08
  1 436 2.18669913E-08
  1 437 2.19937850E-08
  1 438 2.01393749E-08
  1 439 1.67264050E-08
  1 440 1.58321967E-08
  1 441 1.38019116E-08
  1 442 1.25653251E-08
  1 443 1.14189290E-08
  1 444 1.06541805E-08
  1 445 9.79990519E-09
  1 446 9.34502163E-09
  1 447 9.80623406E-09
  1 448 1.09954010E-08
  1 449 1.32777830E-08
  1 450 1.48126759E-08
  1 451 1.59264596E-08
  1 452 1.63506096E-08
  1 453 1.66405492E-08
  1 454 1.78551517E-08
  1 455 1.77102271E-08
  1 456 1.73410034E-08
  1 457 1.61912193E-08
  1 458 1.62074933E-08
  1 459 1.61022628E-08
  1 460 1.72188527E-08
  1 461 1.76259099E-08
  1 462 1.84525496E-08
  1 463 2.00663023E-08
  1 464 2.22065807E-08
  1 465 2.20185140E-08
  1 466 2.13992447E-08
  1 467 1.97910454E-08
  1 468 1.69762610E-08
  1 469 1.57720278E-08
  1 470 1.49831431E-08
  1 471 1.50355121E-08
  1 472 1.51253360E-08
  1 473 1.52015410E-08
  1 474 1.64039931E-08
  1 475 1.65145466E-08
  1 476 1.53061454E-08
  1 477 1.36345296E-08
  1 478 1.28099911E-08
  1 479 1.16901597E-08
  1 480 1.09759937E-08
  1 481 1.06436143E-08
  1 482 9.78852923E-09
  1 483 9.46420212E-09
  1 484 9.74762470E-09
  1 485 1.01433157E-08
  1 486 1.00806433E-08
  1 487 1.15743235E-08
  1 488 1.33675578E-08
  1 489 1.44878041E-08
  1 490 1.55166242E-08
  1 491 1.57699471E-08
  1 492 1.37728142E-08
  1 493 1.32988844E-08
  1 494 1.28231445E-08
  1 495 1.29478687E-08
  1 496 1.33092263E-08
  1 497 1.26803641E-08
  1 498 1.24364072E-08
  1 499 1.24253103E-08
  1 500 1.37981055E-08
  1 501 1.00621324E-08
  1 502 1.10491683E-08
  1 503 1.31553121E-08
  1 504 1.40642049E-08
  1 505 1.28576548E-08
  1 506 1.26282114E-08
  1 507 1.20466296E-08
  1 508 1.20418498E-08
  1 509 1.14140164E-08
  1 510 1.12055717E-08
  1 511 1.06462199E-08
  1 512 9.94301856E-09
  1 513 9.72803087E-09
  1 514 1.07288713E-08
  1 515 1.20068161E-08
  1 516 1.37018317E-08
  1 517 1.57830270E-08
  1 518 1.65172647E-08
  1 519 1.75441394E-08
  1 520 1.96640138E-08
  1 521 2.15379981E-08
  1 522 2.31851505E-08
  1 523 2.44002532E-08
  1 524 2.75878301E-08
  1 525 3.03648032E-08
  1 526 3.34784114E-08
  1 527 3.33781686E-08
  1 528 2.75870138E-08
  1 529 2.66800785E-08
  1 530 2.55211382E-08
  1 531 2.41665289E-08
  1 532 2.17131637E-08
  1 533 1.97300246E-08
  1 534 2.02399179E-08
  1 535 2.07602073E-08
  1 536 2.16161997E-08
  1 537 2.26865677E-08
  1 538 2.15431571E-08
  1 539 1.85751544E-08
  1 540 1.68974386E-08
  1 541 1.57157886E-08
  1 542 1.32244286E-08
  1 543 1.18880129E-08
  1 544 1.10310563E-08
  1 545 9.81879709E-09
  1 546 9.44325379E-09
  1 547 9.33815584E-09
  1 548 1.01287472E-08
  1 549 1.19455705E-08
  1 550 1.36138289E-08
  1 551 1.54004979E-08
  1 552 1.59926289E-08
  1 553 1.58467887E-08
  1 554 1.68570024E-08
  1 555 1.72447945E-08
  1 556 1.73200226E-08
  1 557 1.64307971E-08
  1 558 1.57735135E-08
  1 559 1.58640199E-08
  1 560 1.63285391E-08
  1 561 1.70079813E-08
  1 562 1.78897204E-08
  1 563 1.92054831E-08
  1 564 2.18321441E-08
  1 565 2.21577605E-08
  1 566 2.10283777E-08
  1 567 2.02062533E-08
  1 568 1.73431917E-08
  1 569 1.58260758E-08
  1 570 1.46682399E-08
  1 571 1.44455685E-08
  1 572 1.47107437E-08
  1 573 1.43225895E-08
  1 574 1.50394042E-08
  1 575 1.61046161E-08
  1 576 1.55107057E-08
  1 577 1.39817954E-08
  1 578 1.31508835E-08
  1 579 1.22846844E-08
  1 580 1.10286634E-08
  1 581 1.04381416E-08
  1 582 9.42919570E-09
  1 583 8.93896569E-09
  1 584 9.28161989E-09
  1 585 9.87904350E-09
  1 586 9.86220825E-09
  1 587 1.06775317E-08
  1 588 1.27618843E-08
  1 589 1.42191427E-08
  1 590 1.48635089E-08
  1 591 1.55506558E-08
  1 592 1.45926597E-08
  1 593 1.35626737E-08
  1 594 1.31251799E-08
  1 595 1.33505216E-08
  1 596 1.34020040E-08
  1 597 1.32872969E-08
  1 598 1.31565487E-08
  1 599 1.29228775E-08
  1 600 1.38200521E-08
  1 601 1.02203591E-08
  1 602 1.04918488E-08
  1 603 1.24806862E-08
  1 604 1.40648519E-08
  1 605 1.31613683E-08
  1 606 1.27406562E-08
  1 607 1.22060699E-08
  1 608 1.19848107E-08
  1 609 1.15578571E-08
  1 610 1.14228506E-08
  1 611 1.09932689E-08
  1 612 1.04341137E-08
  1 613 9.55451556E-09
  1 614 1.00706278E-08
  1 615 1.11101636E-08
  1 616 1.25441682E-08
  1 617 1.41754922E-08
  1 618 1.57924566E-08
  1 619 1.62542105E-08
  1 620 1.85254245E-08
  1 621 2.02689821E-08
  1 622 2.15408125E-08
  1 623 2.27024105E-08
  1 624 2.52746767E-08
  1 625 2.86522240E-08
  1 626 3.12819188E-08
  1 627 3.16823232E-08
  1 628 2.78532928E-08
  1 629 2.59852806E-08
  1 630 2.61601312E-08
  1 631 2.59084749E-08
  1 632 2.34693520E-08
  1 633 2.08657877E-08
  1 634 2.02767435E-08
  1 635 2.09457078E-08
  1 636 2.12162418E-08
  1 637 2.24156727E-08
  1 638 2.24096960E-08
  1 639 2.05817576E-08
  1 640 1.78160357E-08
  1 641 1.78435840E-08
  1 642 1.50584844E-08
  1 643 1.30342799E-08
  1 644 1.15607528E-08
  1 645 1.04763675E-08
  1 646 9.58699216E-09
  1 647 9.47381780E-09
  1 648 9.71951650E-09
  1 649 1.09538864E-08
  1 650 1.25024950E-08
  1 651 1.46654381E-08
  1 652 1.57664154E-08
  1 653 1.54794102E-08
  1 654 1.59397153E-08
  1 655 1.66152570E-08
  1 656 1.67698892E-08
  1 657 1.61250641E-08
  1 658 1.56823497E-08
  1 659 1.52759146E-08
  1 660 1.58151630E-08
  1 661 1.62905345E-08
  1 662 1.74584569E-08
  1 663 1.87170921E-08
  1 664 2.07681400E-08
  1 665 2.23430829E-08
  1 666 2.13641638E-08
  1 667 2.00314546E-08
  1 668 1.76955655E-08
  1 669 1.54826562E-08
  1 670 1.42259442E-08
  1 671 1.37329006E-08
  1 672 1.42989303E-08
  1 673 1.38217038E-08
  1 674 1.39244074E-08
  1 675 1.54214605E-08
  1 676 1.52146204E-08
  1 677 1.41593332E-08
  1 678 1.33334252E-08
  1 679 1.27986064E-08
  1 680 1.14056146E-08
  1 681 1.03163442E-08
  1 682 9.36805532E-09
  1 683 8.54888295E-09
  1 684 8.67656719E-09
  1 685 9.22576444E-09
  1 686 9.70983842E-09
  1 687 9.81862164E-09
  1 688 1.17070133E-08
  1 689 1.36183479E-08
  1 690 1.41505283E-08
  1 691 1.46220690E-08
  1 692 1.49519301E-08
  1 693 1.38001097E-08
  1 694 1.32041537E-08
  1 695 1.32524957E-08
  1 696 1.32988118E-08
  1 697 1.36490582E-08
  1 698 1.32287658E-08
  1 699 1.33873918E-08
  1 700 1.36722298E-08
  1 701 1.02298727E-08
  1 702 1.00763585E-08
  1 703 1.14582884E-08
  1 704 1.32920123E-08
  1 705 1.32757694E-08
  1 706 1.26937910E-08
  1 707 1.22331691E-08
  1 708 1.19135402E-08
  1 709 1.16241646E-08
  1 710 1.13756212E-08
  1 711 1.12173976E-08
  1 712 1.11170153E-08
  1 713 9.77392734E-09
  1 714 9.79917739E-09
  1 715 1.04694536E-08
  1 716 1.14856524E-08
  1 717 1.27957090E-08
  1 718 1.46080756E-08
  1 719 1.54813384E-08
  1 720 1.73435991E-08
  1 721 1.91515111E-08
  1 722 1.97694597E-08
  1 723 2.16280162E-08
  1 724 2.28002024E-08
  1 725 2.64630683E-08
  1 726 2.87616362E-08
  1 727 2.86460800E-08
  1 728 2.72069360E-08
  1 729 2.44500186E-08
  1 730 2.54491577E-08
  1 731 2.56990458E-08
  1 732 2.50310109E-08
  1 733 2.17970818E-08
  1 734 2.04422544E-08
  1 735 2.01985698E-08
  1 736 2.11765749E-08
  1 737 2.15501659E-08
  1 738 2.30023980E-08
  1 739 2.16140469E-08
  1 740 1.88737978E-08
  1 741 1.89008921E-08
  1 742 1.72848747E-08
  1 743 1.42475936E-08
  1 744 1.21744712E-08
  1 745 1.10026926E-08
  1 746 9.93631431E-09
  1 747 9.76600861E-09
  1 748 9.51145142E-09
  1 749 1.00689494E-08
  1 750 1.13124534E-08
  1 751 1.31718881E-08
  1 752 1.51905416E-08
  1 753 1.54994137E-08
  1 754 1.53336601E-08
  1 755 1.58296941E-08
  1 756 1.61123864E-08
  1 757 1.62153620E-08
  1 758 1.56484524E-08
  1 759 1.48588977E-08
  1 760 1.50164757E-08
  1 761 1.60705164E-08
  1 762 1.69838604E-08
  1 763 1.89105825E-08
  1 764 1.99422678E-08
  1 765 2.19755892E-08
  1 766 2.17868866E-08
  1 767 1.99676440E-08
  1 768 1.84136401E-08
  1 769 1.53979399E-08
  1 770 1.39010546E-08
  1 771 1.31059167E-08
  1 772 1.34159726E-08
  1 773 1.35107486E-08
  1 774 1.33944120E-08
  1 775 1.45723507E-08
  1 776 1.49202875E-08
  1 777 1.40138690E-08
  1 778 1.31148148E-08
  1 779 1.27815088E-08
  1 780 1.17098485E-08
  1 781 1.03677911E-08
  1 782 9.42984096E-09
  1 783 8.28863465E-09
  1 784 7.99466960E-09
  1 785 8.47176286E-09
  1 786 9.00594113E-09
  1 787 9.30805342E-09
  1 788 1.04364017E-08
  1 789 1.22787562E-08
  1 790 1.33350562E-08
  1 791 1.42027477E-08
  1 792 1.46119066E-08
  1 793 1.41951761E-08
  1 794 1.34153117E-08
  1 795 1.35368722E-08
  1 796 1.37521824E-08
  1 797 1.40289211E-08
  1 798 1.35200910E-08
  1 799 1.38919504E-08
  1 800 1.40098588E-08
  1 801 1.04944568E-08
  1 802 9.84904921E-09
  1 803 1.07239184E-08
  1 804 1.21454035E-08
  1 805 1.32406576E-08
  1 806 1.29662998E-08
  1 807 1.25912911E-08
  1 808 1.19623883E-08
  1 809 1.16345119E-08
  1 810 1.12328487E-08
  1 811 1.14206204E-08
  1 812 1.13467069E-08
  1 813 1.03647250E-08
  1 814 9.58779099E-09
  1 815 9.90064831E-09
  1 816 1.04578541E-08
  1 817 1.14881689E-08
  1 818 1.34268276E-08
  1 819 1.48069969E-08
  1 820 1.61908490E-08
  1 821 1.83342798E-08
  1 822 1.87220255E-08
  1 823 1.96909871E-08
  1 824 2.11763831E-08
  1 825 2.42848973E-08
  1 826 2.68291048E-08
  1 827 2.72096586E-08
  1 828 2.56895322E-08
  1 829 2.33379721E-08
  1 830 2.36199107E-08
  1 831 2.52862168E-08
  1 832 2.58576960E-08
  1 833 2.34269425E-08
  1 834 2.14729582E-08
  1 835 2.02138677E-08
  1 836 2.08386416E-08
  1 837 2.14270416E-08
  1 838 2.22953947E-08
  1 839 2.20416473E-08
  1 840 2.00334199E-08
  1 841 1.90878315E-08
  1 842 1.90357943E-08
  1 843 1.57464680E-08
  1 844 1.29510697E-08
  1 845 1.16005791E-08
  1 846 1.04743484E-08
  1 847 9.79052291E-09
  1 848 9.28548649E-09
  1 849 9.34858002E-09
  1 850 1.04091223E-08
  1 851 1.16291089E-08
  1 852 1.42129766E-08
  1 853 1.49571004E-08
  1 854 1.48431522E-08
  1 855 1.49325108E-08
  1 856 1.52682583E-08
  1 857 1.61501575E-08
  1 858 1.53929523E-08
  1 859 1.49428905E-08
  1 860 1.43368407E-08
  1 861 1.52835201E-08
  1 862 1.62667283E-08
  1 863 1.82319720E-08
  1 864 1.96957584E-08
  1 865 2.09613664E-08
  1 866 2.10886691E-08
  1 867 1.99302833E-08
  1 868 1.84735165E-08
  1 869 1.55862287E-08
  1 870 1.39231415E-08
  1 871 1.25796657E-08
  1 872 1.27234247E-08
  1 873 1.33138066E-08
  1 874 1.31549011E-08
  1 875 1.39911904E-08
  1 876 1.44007995E-08
  1 877 1.39974020E-08
  1 878 1.28770549E-08
  1 879 1.27701453E-08
  1 880 1.23692784E-08
  1 881 1.09043408E-08
  1 882 9.63687770E-09
  1 883 8.50925545E-09
  1 884 8.03559476E-09
  1 885 8.29464857E-09
  1 886 8.72534004E-09
  1 887 9.43250648E-09
  1 888 9.84905988E-09
  1 889 1.11904805E-08
  1 890 1.27474068E-08
  1 891 1.39690510E-08
  1 892 1.47669353E-08
  1 893 1.46849094E-08
  1 894 1.39262239E-08
  1 895 1.40371978E-08
  1 896 1.46279047E-08
  1 897 1.48988514E-08
  1 898 1.44208200E-08
  1 899 1.42730225E-08
  1 900 1.48177972E-08
  1 901 1.07168222E-08
  1 902 9.76082249E-09
  1 903 1.00691083E-08
  1 904 1.09963842E-08
  1 905 1.24298436E-08
  1 906 1.31133686E-08
  1 907 1.30144882E-08
  1 908 1.20004784E-08
  1 909 1.15378762E-08
  1 910 1.12638247E-08
  1 911 1.14888332E-08
  1 912 1.15763991E-08
  1 913 1.09063859E-08
  1 914 9.66016489E-09
  1 915 9.39121428E-09
  1 916 9.52220610E-09
  1 917 1.04336575E-08
  1 918 1.21231281E-08
  1 919 1.40863494E-08
  1 920 1.51330640E-08
  1 921 1.73628336E-08
  1 922 1.77334853E-08
  1 923 1.80258921E-08
  1 924 1.95241379E-08
  1 925 2.19772340E-08
  1 926 2.48713061E-08
  1 927 2.57521012E-08
  1 928 2.46450454E-08
  1 929 2.24032613E-08
  1 930 2.21145900E-08
  1 931 2.41757135E-08
  1 932 2.61202759E-08
  1 933 2.50940790E-08
  1 934 2.30454126E-08
  1 935 2.10364835E-08
  1 936 2.08391931E-08
  1 937 2.15784031E-08
  1 938 2.18295917E-08
  1 939 2.27142891E-08
  1 940 2.16818148E-08
  1 941 1.96726340E-08
  1 942 2.02379650E-08
  1 943 1.77400958E-08
  1 944 1.45947437E-08
  1 945 1.26098039E-08
  1 946 1.13177073E-08
  1 947 1.03124034E-08
  1 948 9.49394272E-09
  1 949 8.95224353E-09
  1 950 9.58136830E-09
  1 951 1.06418272E-08
  1 952 1.29357494E-08
  1 953 1.43651609E-08
  1 954 1.44964541E-08
  1 955 1.45350317E-08
  1 956 1.45862217E-08
  1 957 1.55110549E-08
  1 958 1.55062703E-08
  1 959 1.49218884E-08
  1 960 1.38817933E-08
  1 961 1.41965120E-08
  1 962 1.54169814E-08
  1 963 1.73877614E-08
  1 964 1.93763001E-08
  1 965 2.02606832E-08
  1 966 2.01357012E-08
  1 967 1.97374322E-08
  1 968 1.81563129E-08
  1 969 1.63544813E-08
  1 970 1.41483652E-08
  1 971 1.25190703E-08
  1 972 1.21668798E-08
  1 973 1.31181679E-08
  1 974 1.28928510E-08
  1 975 1.32055399E-08
  1 976 1.36462948E-08
  1 977 1.38154992E-08
  1 978 1.25159032E-08
  1 979 1.24129351E-08
  1 980 1.24699284E-08
  1 981 1.13827577E-08
  1 982 9.96232956E-09
  1 983 8.55782207E-09
  1 984 7.97512799E-09
  1 985 8.23492378E-09
  1 986 8.37892420E-09
  1 987 9.09680560E-09
  1 988 9.50282275E-09
  1 989 1.01322137E-08
  1 990 1.16091317E-08
  1 991 1.30051031E-08
  1 992 1.45669299E-08
  1 993 1.46418181E-08
  1 994 1.40830012E-08
  1 995 1.36796636E-08
  1 996 1.45474441E-08
  1 997 1.49859118E-08
  1 998 1.52117212E-08
  1 999 1.45904261E-08
  1 1000 1.47134692E-08
  1 1001 1.09421794E-08
  1 1002 9.87652318E-09
  1 1003 9.36360116E-09
  1 1004 9.94211152E-09
  1 1005 1.11183834E-08
  1 1006 1.25651337E-08
  1 1007 1.25836857E-08
  1 1008 1.21840450E-08
  1 1009 1.12681881E-08
  1 1010 1.10005120E-08
  1 1011 1.12907081E-08
  1 1012 1.16411883E-08
  1 1013 1.12961179E-08
  1 1014 9.74994359E-09
  1 1015 9.26086702E-09
  1 1016 9.13417657E-09
  1 1017 9.51285834E-09
  1 1018 1.11979560E-08
  1 1019 1.29679017E-08
  1 1020 1.44276317E-08
  1 1021 1.44276317E-08
  1 1022 1.44276317E-08
  1 1023 1.44276317E-08
  1 1024 1.61449210E-08
  1 1025 1.69464605E-08
  1 1026 1.73170001E-08
  1 1027 1.81288826E-08
  1 1028 1.99607359E-08
  1 1029 2.27388498E-08
  1 1030 2.42024013E-08
  1 1031 2.45921298E-08
  1 1032 2.22610732E-08
  1 1033 2.07834932E-08
  1 1034 2.28746379E-08
  1 1035 2.57278006E-08
  1 1036 2.59169282E-08
  1 1037 2.42748461E-08
  1 1038 2.25456020E-08
  1 1039 2.12233700E-08
  1 1040 2.13925656E-08
  1 1041 2.17145967E-08
  1 1042 2.21326448E-08
  1 1043 2.23003353E-08
  1 1044 2.04512864E-08
  1 1045 2.10098181E-08
  1 1046 1.91678950E-08
  1 1047 1.64028350E-08
  1 1048 1.34738576E-08
  1 1049 1.19518646E-08
  1 1050 1.11920218E-08
  1 1051 9.76637807E-09
  1 1052 8.77857838E-09
  1 1053 8.86211107E-09
  1 1054 9.91607307E-09
  1 1055 1.18759020E-08
  1 1056 1.37850377E-08
  1 1057 1.41204105E-08
  1 1058 1.38627539E-08
  1 1059 1.42647565E-08
  1 1060 1.44324778E-08
  1 1061 1.54271604E-08
  1 1062 1.47225924E-08
  1 1063 1.35881429E-08
  1 1064 1.35881429E-08
  1 1065 1.35881429E-08
  1 1066 1.35881429E-08
  1 1067 1.33742441E-08
  1 1068 1.41604385E-08
  1 1069 1.59519292E-08
  1 1070 1.81180459E-08
  1 1071 1.93706929E-08
  1 1072 1.95923115E-08
  1 1073 1.86493123E-08
  1 1074 1.80884747E-08
  1 1075 1.64059649E-08
  1 1076 1.42044816E-08
  1 1077 1.27113401E-08
  1 1078 1.18841492E-08
  1 1079 1.26218922E-08
  1 1080 1.26794103E-08
  1 1081 1.26940007E-08
  1 1082 1.28811900E-08
  1 1083 1.31281963E-08
  1 1084 1.27214043E-08
  1 1085 1.19889381E-08
  1 1086 1.23408895E-08
  1 1087 1.17689278E-08
  1 1088 1.02613128E-08
  1 1089 8.87942752E-09
  1 1090 7.90867843E-09
  1 1091 8.00882422E-09
  1 1092 8.31933831E-09
  1 1093 8.75325241E-09
  1 1094 9.23402681E-09
  1 1095 9.51956206E-09
  1 1096 1.05215427E-08
  1 1097 1.23719209E-08
  1 1098 1.40112363E-08
  1 1099 1.46420453E-08
  1 1100 1.45381653E-08
  1 1101 1.36256751E-08
  1 1102 1.43679591E-08
  1 1103 1.49077916E-08
  1 1104 1.57632433E-08
  1 1105 1.51680768E-08
  1 1106 1.48416688E-08
  1 1107 1.12992409E-08
  1 1108 1.01239046E-08
  1 1109 9.29241541E-09
  1 1110 9.50175775E-09
  1 1111 1.00659441E-08
  1 1112 1.13619549E-08
  1 1113 1.20348995E-08
  1 1114 1.22562219E-08
  1 1115 1.11947366E-08
  1 1116 1.09015050E-08
  1 1117 1.09534914E-08
  1 1118 1.15697101E-08
  1 1119 1.14146557E-08
  1 1120 1.01658680E-08
  1 1121 9.36131426E-09
  1 1122 8.93093648E-09
  1 1123 8.94701311E-09
  1 1124 1.04629384E-08
  1 1125 1.20394666E-08
  1 1126 1.20394666E-08
  1 1127 1.20394666E-08
  1 1128 1.20394666E-08
  1 1129 1.34698523E-08
  1 1130 1.34698523E-08
  1 1131 1.34698523E-08
  1 1132 1.34698523E-08
  1 1133 1.34698523E-08
  1 1134 1.34698523E-08
  1 1135 1.34698523E-08
  1 1136 1.34698523E-08
  1 1137 1.34698523E-08
  1 1138 1.34698523E-08
  1 1139 1.34698523E-08
  1 1140 1.34698523E-08
  1 1141 1.34698523E-08
  1 1142 1.34698523E-08
  1 1143 1.34698523E-08
  1 1144 1.34698523E-08
  1 1145 1.34698523E-08
  1 1146 1.34698523E-08
  1 1147 1.34698523E-08
  1 1148 1.34698523E-08
  1 1149 1.34698523E-08
  1 1150 1.34698523E-08
  1 1151 1.34698523E-08
  1 1152 1.34698523E-08
  1 1153 1.34698523E-08
  1 1154 1.34698523E-08
  1 1155 1.34698523E-08
  1 1156 1.34698523E-08
  1 1157 1.34698523E-08
  1 1158 1.34698523E-08
  1 1159 1.34698523E-08
  1 1160 1.34698523E-08
  1 1161 1.34698523E-08
  1 1162 1.34698523E-08
  1 1163 1.34698523E-08
  1 1164 1.34698523E-08
  1 1165 1.34698523E-08
  1 1166 1.34698523E-08
  1 1167 1.34698523E-08
  1 1168 1.34698523E-08
  1 1169 1.53501271E-08
  1 1170 1.53501271E-08
  1 1171 1.53501271E-08
  1 1172 1.53501271E-08
  1 1173 1.64925503E-08
  1 1174 1.68294139E-08
  1 1175 1.69220403E-08
  1 1176 1.82556607E-08
  1 1177 2.05057807E-08
  1 1178 2.20831740E-08
  1 1179 2.41777463E-08
  1 1180 2.29782229E-08
  1 1181 2.01462988E-08
  1 1182 2.15460534E-08
  1 1183 2.43414725E-08
  1 1184 2.60903248E-08
  1 1185 2.50116158E-08
  1 1186 2.43066134E-08
  1 1187 2.26138860E-08
  1 1188 2.15244391E-08
  1 1189 2.18065253E-08
  1 1190 2.13011591E-08
  1 1191 2.25401713E-08
  1 1192 2.14712797E-08
  1 1193 2.11836747E-08
  1 1194 2.04683346E-08
  1 1195 1.76979249E-08
  1 1196 1.44223674E-08
  1 1197 1.25561858E-08
  1 1198 1.15991961E-08
  1 1199 1.01108609E-08
  1 1200 8.76833319E-09
  1 1201 8.27206467E-09
  1 1202 9.01049710E-09
  1 1203 1.07649685E-08
  1 1204 1.25737053E-08
  1 1205 1.39179473E-08
  1 1206 1.33382782E-08
  1 1207 1.33766945E-08
  1 1208 1.38286578E-08
  1 1209 1.44800130E-08
  1 1210 1.44849638E-08
  1 1211 1.44849638E-08
  1 1212 1.44849638E-08
  1 1213 1.44849638E-08
  1 1214 1.31024506E-08
  1 1215 1.31024506E-08
  1 1216 1.31024506E-08
  1 1217 1.31024506E-08
  1 1218 1.31024506E-08
  1 1219 1.31024506E-08
  1 1220 1.31024506E-08
  1 1221 1.31024506E-08
  1 1222 1.31024506E-08
  1 1223 1.31024506E-08
  1 1224 1.31024506E-08
  1 1225 1.31024506E-08
  1 1226 1.31024506E-08
  1 1227 1.31024506E-08
  1 1228 1.31024506E-08
  1 1229 1.31024506E-08
  1 1230 1.31024506E-08
  1 1231 1.31024506E-08
  1 1232 1.31024506E-08
  1 1233 1.31024506E-08
  1 1234 1.31024506E-08
  1 1235 1.31024506E-08
  1 1236 1.31024506E-08
  1 1237 1.31024506E-08
  1 1238 1.31024506E-08
  1 1239 1.31024506E-08
  1 1240 1.31024506E-08
  1 1241 1.31024506E-08
  1 1242 1.31024506E-08
  1 1243 1.31024506E-08
  1 1244 1.31024506E-08
  1 1245 1.31024506E-08
  1 1246 1.31024506E-08
  1 1247 1.31024506E-08
  1 1248 1.31024506E-08
  1 1249 1.31024506E-08
  1 1250 1.31024506E-08
  1 1251 1.31024506E-08
  1 1252 1.31024506E-08
  1 1253 1.31024506E-08
  1 1254 1.26929185E-08
  1 1255 1.26929185E-08
  1 1256 1.26929185E-08
  1 1257 1.26929185E-08
  1 1258 1.29597115E-08
  1 1259 1.42851864E-08
  1 1260 1.65614478E-08
  1 1261 1.81609204E-08
  1 1262 1.86602928E-08
  1 1263 1.80121702E-08
  1 1264 1.80224776E-08
  1 1265 1.66464834E-08
  1 1266 1.46427176E-08
  1 1267 1.34335171E-08
  1 1268 1.22076214E-08
  1 1269 1.25816787E-08
  1 1270 1.31276618E-08
  1 1271 1.30710220E-08
  1 1272 1.27771599E-08
  1 1273 1.29175160E-08
  1 1274 1.33113593E-08
  1 1275 1.23846791E-08
  1 1276 1.23308132E-08
  1 1277 1.23914865E-08
  1 1278 1.09360388E-08
  1 1279 9.48582002E-09
  1 1280 8.38981087E-09
  1 1281 7.88422758E-09
  1 1282 8.29678828E-09
  1 1283 8.66722801E-09
  1 1284 9.13570225E-09
  1 1285 9.28688895E-09
  1 1286 1.00232209E-08
  1 1287 1.15807551E-08
  1 1288 1.33255475E-08
  1 1289 1.43809195E-08