# File generated by Flopy version 3.7.0 on 06/14/2024 at 13:18:35.
BEGIN options
END options

BEGIN griddata
  strt
    INTERNAL  FACTOR  1.0
        15.00000000      15.00000000      15.00000000      15.00000000      15.00000000      15.00000000      15.00000000      15.00000000      15.00000000      15.00000000      15.00000000      15.00000000      15.00000000      15.00000000      15.00000000      15.00000000      15.00000000      15.00000000      15.00000000      15.00000000
        15.00000000      15.00000000      15.00000000      15.00000000      15.00000000      15.00000000      15.00000000      15.00000000      15.00000000      15.00000000      15.00000000      15.00000000      15.00000000      15.00000000      15.00000000      15.00000000      15.00000000      15.00000000      15.00000000      15.00000000
        15.00000000      15.00000000      15.00000000      15.00000000      15.00000000      15.00000000      15.00000000      15.00000000      15.00000000      15.00000000      15.00000000      15.00000000      15.00000000      15.00000000      15.00000000      15.00000000      15.00000000      15.00000000      15.00000000      15.00000000
        15.00000000      15.00000000      15.00000000      15.00000000      15.00000000      15.00000000      15.00000000      15.00000000      15.00000000      15.00000000      15.00000000      15.00000000      15.00000000      15.00000000      15.00000000      15.00000000      15.00000000      15.00000000      15.00000000      15.00000000
        15.00000000      15.00000000      15.00000000      15.00000000      15.00000000      15.00000000      15.00000000      15.00000000      15.00000000      15.00000000      15.00000000      15.00000000      15.00000000      15.00000000      15.00000000      15.00000000      15.00000000      15.00000000      15.00000000      15.00000000
        15.07846361      15.08195862      15.08546981      15.08798306      15.09021191      15.09311282      15.09466049      15.09407651      15.09025676      15.08611394      15.08322316      15.07970950      15.07482044      15.06942913      15.06475995      15.05987477      15.05486323      15.05005169      15.04570662      15.04256397
        15.04074216      15.03978867      15.03937301      15.03937986      15.04001808      15.04088400      15.04149612      15.04247871      15.04316882      15.04234249      15.04013697      15.03756264      15.03478192      15.03224450      15.03008563      15.02832666      15.02712127      15.02625183      15.02564722      15.02546414
        15.02597250      15.02710994      15.02873437      15.03028915      15.03204781      15.03455986      15.03700299      15.03900994      15.04076783      15.04218964      15.04273127      15.04278499      15.04160717      15.04016716      15.03885002      15.03766543      15.03675041      15.03635898      15.03679375      15.03766122
        15.03807176      15.03785681      15.03754133      15.03738330      15.03719285      15.03693006      15.03642469      15.03596266      15.03637093      15.03786785      15.04065859      15.04422189      15.04884860      15.05546680      15.06223939      15.06859376      15.07374110      15.07691585      15.07860215      15.07906571
        15.07862817      15.07624720      15.07171178      15.06666613      15.06122596      15.05554257      15.05015205      15.04576616      15.04205333      15.03856220      15.03551309      15.03207845      15.02895127      15.02637466      15.02451073      15.02312755      15.02202497      15.02087720      15.01973476      15.01916766
        15.15180919      15.15521366      15.15943311      15.16332132      15.16697912      15.17061596      15.17243011      15.17139910      15.16737164      15.16230529      15.15669927      15.14902742      15.13870150      15.12758273      15.11686644      15.10631478      15.09647732      15.08748582      15.07913424      15.07349634
        15.07081387      15.07013320      15.07110684      15.07287264      15.07534914      15.07799304      15.08035064      15.08216005      15.08229536      15.08007061      15.07638892      15.07204755      15.06744114      15.06284865      15.05902708      15.05620549      15.05420235      15.05252098      15.05150755      15.05162671
        15.05314097      15.05529927      15.05801701      15.06055402      15.06284136      15.06579218      15.06894775      15.07183265      15.07439205      15.07648689      15.07766664      15.07775939      15.07663936      15.07503815      15.07301099      15.07114383      15.07017944      15.07014904      15.07115486      15.07265212
        15.07356617      15.07345326      15.07311900      15.07303297      15.07296232      15.07263324      15.07262111      15.07322025      15.07508367      15.07868597      15.08447946      15.09189401      15.10056006      15.11031597      15.11931980      15.12766275      15.13440132      15.13967666      15.14290545      15.14420666
        15.14300830      15.13847054      15.13088280      15.12206550      15.11287097      15.10358987      15.09485534      15.08741708      15.08105060      15.07510177      15.06934587      15.06358974      15.05834598      15.05403241      15.05095037      15.04822061      15.04560695      15.04316080      15.04118129      15.03993450
        15.21364984      15.21614608      15.21992348      15.22476504      15.22881019      15.23094001      15.23179889      15.23119416      15.22857832      15.22376424      15.21644374      15.20534876      15.19081158      15.17436237      15.15755064      15.14060633      15.12484388      15.11032114      15.09746374      15.08946894
        15.08671558      15.08786374      15.09196932      15.09746268      15.10340329      15.10914817      15.11424267      15.11726077      15.11702237      15.11425702      15.11029126      15.10566576      15.10064970      15.09481874      15.08949968      15.08527373      15.08243804      15.08058875      15.07947483      15.07947116
        15.08110695      15.08323069      15.08558985      15.08779233      15.09001184      15.09267125      15.09560048      15.09856250      15.10112976      15.10338408      15.10506233      15.10558816      15.10517097      15.10404824      15.10259438      15.10136603      15.10100309      15.10150190      15.10289480      15.10440116
        15.10546476      15.10596088      15.10614287      15.10638514      15.10659775      15.10687795      15.10805775      15.11038450      15.11418084      15.12025068      15.12847655      15.13857406      15.14943709      15.16029458      15.17053588      15.17963531      15.18683139      15.19241386      15.19567305      15.19626658
        15.19380036      15.18814974      15.17960583      15.16908335      15.15823262      15.14769628      15.13777468      15.12834037      15.11953562      15.11133415      15.10364835      15.09633696      15.08936699      15.08334070      15.07882278      15.07444834      15.07010269      15.06641281      15.06367023      15.06199812
        15.26268745      15.26487933      15.26828497      15.27275242      15.27597808      15.27730032      15.27794220      15.27746845      15.27540315      15.27057541      15.26186205      15.24872853      15.23151087      15.21034536      15.18690350      15.16244983      15.13862284      15.11634461      15.09799173      15.08768487
        15.08595278      15.09085578      15.10010430      15.11143279      15.12290931      15.13344587      15.14224169      15.14719497      15.14834205      15.14713481      15.14416618      15.14000671      15.13463767      15.12811903      15.12189282      15.11662259      15.11277872      15.11029057      15.10852096      15.10801022
        15.10864684      15.10976312      15.11114364      15.11262546      15.11462680      15.11687215      15.11902355      15.12118428      15.12348037      15.12577903      15.12762696      15.12882698      15.12944304      15.12954335      15.12932831      15.12919186      15.12946964      15.12999092      15.13090444      15.13213680
        15.13340161      15.13496820      15.13654646      15.13818163      15.13981697      15.14132180      15.14357803      15.14707838      15.15270475      15.16069451      15.17012765      15.18087532      15.19223231      15.20436245      15.21556918      15.22459317      15.23143802      15.23593904      15.23817890      15.23788680
        15.23482828      15.22959699      15.22203014      15.21257679      15.20243399      15.19167793      15.18103739      15.17057043      15.15999748      15.14954037      15.13996678      15.13089435      15.12225133      15.11456543      15.10784761      15.10137988      15.09552818      15.09077836      15.08728590      15.08557598
        15.30101687      15.30326244      15.30699748      15.31053140      15.31250893      15.31334694      15.31359140      15.31272870      15.31006074      15.30452990      15.29493884      15.28060555      15.26081556      15.23516829      15.20408561      15.16970035      15.13550625      15.10363017      15.07834856      15.06537818
        15.06612568      15.07733748      15.09426457      15.11365051      15.13285602      15.15009784      15.16372437      15.17216052      15.17646803      15.17792316      15.17678556      15.17332435      15.16769563      15.16126444      15.15497549      15.14911777      15.14446108      15.14104306      15.13824917      15.13645570
        15.13550287      15.13514088      15.13531871      15.13606936      15.13742152      15.13895491      15.14026041      15.14161978      15.14355072      15.14578408      15.14768603      15.14947582      15.15098867      15.15238693      15.15329746      15.15395781      15.15431543      15.15434868      15.15461458      15.15583187
        15.15796620      15.16113592      15.16470175      15.16815863      15.17133069      15.17444289      15.17793695      15.18271802      15.18943168      15.19795683      15.20801530      15.21919668      15.23106306      15.24335352      15.25388635      15.26141182      15.26675980      15.27020465      15.27167866      15.27114737
        15.26872198      15.26485051      15.25917903      15.25247790      15.24468340      15.23498136      15.22417408      15.21315589      15.20173431      15.18984507      15.17834407      15.16763058      15.15699969      15.14745342      15.13836053      15.13013166      15.12324697      15.11769260      15.11359736      15.11146930
        15.33283527      15.33483233      15.33780318      15.33996788      15.34098854      15.34119381      15.34060182      15.33879360      15.33516229      15.32876278      15.31848547      15.30291523      15.28039023      15.24951414      15.20948094      15.16335369      15.11668569      15.07301396      15.03847903      15.02244467
        15.02712148      15.04753256      15.07565522      15.10569332      15.13423439      15.15922275      15.17901048      15.19235648      15.20033648      15.20452338      15.20544250      15.20377664      15.19979405      15.19448978      15.18851675      15.18226549      15.17674465      15.17260267      15.16872024      15.16518529
        15.16236843      15.16018981      15.15887570      15.15833046      15.15860655      15.15944611      15.16042145      15.16152366      15.16287390      15.16456205      15.16628262      15.16836269      15.17055494      15.17280856      15.17455999      15.17551719      15.17543669      15.17484311      15.17493380      15.17646956
        15.17993395      15.18507047      15.19052998      15.19570194      15.20066567      15.20539182      15.21001822      15.21611171      15.22361266      15.23282855      15.24368931      15.25534353      15.26673783      15.27707011      15.28534822      15.29083454      15.29453414      15.29681148      15.29782718      15.29756672
        15.29641836      15.29456097      15.29169370      15.28812820      15.28312671      15.27565267      15.26601702      15.25532227      15.24371936      15.23090993      15.21760018      15.20538109      15.19345774      15.18197976      15.17100287      15.16187071      15.15431817      15.14789726      15.14323080      15.14074296
        15.36041305      15.36169957      15.36296242      15.36373212      15.36402522      15.36376418      15.36228193      15.35945643      15.35468316      15.34726871      15.33579594      15.31801572      15.29169344      15.25464892      15.20508065      15.14660296      15.08613872      15.02697963      14.97980760      14.96031998
        14.97073006      15.00336948      15.04621894      15.08994788      15.12964079      15.16276162      15.18875233      15.20702236      15.21878459      15.22615844      15.22992378      15.23107648      15.22998983      15.22673175      15.22215073      15.21650552      15.21046061      15.20471786      15.19917279      15.19416770
        15.18974311      15.18572881      15.18264072      15.18042644      15.17918314      15.17898163      15.17959834      15.18069519      15.18182113      15.18296083      15.18437198      15.18653457      15.18888564      15.19123518      15.19305670      15.19374154      15.19299921      15.19152482      15.19076567      15.19241107
        15.19742593      15.20474694      15.21244644      15.22004303      15.22722946      15.23332363      15.23951949      15.24687620      15.25527247      15.26508668      15.27596790      15.28669776      15.29601787      15.30412681      15.31024216      15.31444507      15.31731727      15.31917904      15.32001061      15.32050412
        15.32110310      15.32158373      15.32184783      15.32093896      15.31823307      15.31325289      15.30576084      15.29626269      15.28452045      15.27108136      15.25682710      15.24339679      15.23090201      15.21854942      15.20697971      15.19712105      15.18885025      15.18217466      15.17738715      15.17494208
        15.38516648      15.38573159      15.38603798      15.38599122      15.38552923      15.38415917      15.38147377      15.37725251      15.37094486      15.36205100      15.34900616      15.32855156      15.29771717      15.25375146      15.19562451      15.12587646      15.04916475      14.96917608      14.90306539      14.87592600
        14.89653573      14.94829124      15.01019906      15.07027764      15.12178393      15.16281380      15.19444330      15.21690632      15.23207635      15.24262130      15.24971327      15.25385392      15.25573353      15.25533176      15.25320769      15.24891809      15.24278172      15.23546351      15.22825019      15.22227817
        15.21694198      15.21172311      15.20710148      15.20335500      15.20071003      15.19946204      15.19934694      15.19996620      15.20065860      15.20133017      15.20243205      15.20417996      15.20595050      15.20772462      15.20895983      15.20885307      15.20688580      15.20331564      15.20017035      15.20128786
        15.20871474      15.21954672      15.23050539      15.24080776      15.24989860      15.25769908      15.26550155      15.27356078      15.28226760      15.29196267      15.30190472      15.31107674      15.31881457      15.32541397      15.33024053      15.33384799      15.33674000      15.33885196      15.34051716      15.34272579
        15.34535498      15.34818150      15.35054894      15.35113975      15.34991069      15.34685585      15.34145775      15.33335849      15.32200000      15.30849999      15.29445841      15.28085942      15.26832449      15.25659392      15.24565342      15.23573820      15.22739427      15.22116504      15.21672858      15.21440385
        15.40875357      15.40872196      15.40835975      15.40760704      15.40604892      15.40331615      15.39931486      15.39336647      15.38516598      15.37433879      15.35936850      15.33621530      15.30135844      15.25188942      15.18602112      15.10520797      15.01061844      14.90145189      14.79615498      14.74741203
        14.79221924      14.88171145      14.97224158      15.05077487      15.11373225      15.16178248      15.19736599      15.22257689      15.24027154      15.25332414      15.26311481      15.27025655      15.27503056      15.27752780      15.27799055      15.27575085      15.27086748      15.26418283      15.25671198      15.25013110
        15.24405607      15.23807426      15.23248011      15.22755184      15.22418317      15.22235467      15.22133483      15.22098412      15.22075685      15.22095883      15.22152774      15.22241058      15.22328485      15.22417654      15.22451105      15.22293330      15.21824355      15.21034213      15.20119126      15.19971887
        15.21218997      15.22972315      15.24509937      15.25816071      15.26920615      15.27858131      15.28708504      15.29555220      15.30446945      15.31382223      15.32286522      15.33103149      15.33787411      15.34333321      15.34759823      15.35103016      15.35417648      15.35701215      15.36033838      15.36440603
        15.36902371      15.37359691      15.37716781      15.37900518      15.37908951      15.37726231      15.37306937      15.36585503      15.35553327      15.34293831      15.32983038      15.31693376      15.30540898      15.29549358      15.28616197      15.27808926      15.27135098      15.26596728      15.26189843      15.26000604
        15.43327407      15.43222194      15.43062048      15.42847507      15.42536954      15.42128456      15.41577691      15.40820331      15.39805149      15.38510039      15.36803968      15.34262251      15.30474058      15.25113856      15.17982738      15.09089103      14.97895746      14.83031809      14.63989202      14.58056838
        14.58315898      14.43018727      14.43877296      14.64380253      14.81425821      14.94192180      15.03729693      15.10800497      15.15978358      15.19760541      15.22468616      15.24422672      15.25919640      15.27095644      15.28031272      15.28745375      15.29271068      15.29612554      15.29685042      15.29503281
        15.29133951      15.28587542      15.27939439      15.27264840      15.26536604      15.25885424      15.25354997      15.24987167      15.24766892      15.24588798      15.24435497      15.24340244      15.24324836      15.24354298      15.24374444      15.24359386      15.24324809      15.24172049      15.23765768      15.22914890
        15.21421472      15.19036266      15.18281808      15.18696413      15.16253840      15.16899360      15.20512680      15.23602673      15.25722402      15.27328841      15.28604408      15.29608655      15.30496198      15.31411128      15.32348497      15.33279294      15.34147469      15.34893582      15.35488257      15.35963664
        15.36363603      15.36714743      15.37068238      15.37472930      15.37967555      15.38541834      15.39159755      15.39733330      15.40210851      15.40516622      15.40624659      15.40509774      15.40132585      15.39485954      15.38620629      15.37563855      15.36390742      15.35275205      15.34319828      15.33539283
        15.32848018      15.32329414      15.31885154      15.31488470      15.31162086      15.30979675      15.45917138      15.45675280      15.45350054      15.44934312      15.44413872      15.43817835      15.43096454      15.42176664      15.40975789      15.39480607      15.37565809      15.34814034      15.30873415      15.25416560
        15.18214437      15.09081601      14.97103710      14.80226785      14.60436646      14.44307096      14.61670036      14.46387576      14.26626263      14.15164205      14.15599365      13.96902948      13.84440446      13.84715691      13.62423638      13.47568799      13.47731157      12.91348451      14.17693809      14.29785010
        13.90671618      14.04121245      13.64349599      13.79186185      13.48718743      13.74467164      13.97036250      14.21330808      14.18938939      13.91394806      13.64732379      13.48918541      13.79749042      13.74886582      14.05228624      13.97907145      14.31928177      14.23232096      13.64686351      13.80448695
        13.80642293      13.88691726      14.00692780      14.01125129      14.10340841      14.23933083      14.25027295      14.34706078      14.46915648      14.61807068      14.49183909      14.63276124      14.79730499      14.93987460      15.03709390      15.10738617      15.15872539      15.19636499      15.22412261      15.24501828
        15.26150537      15.27458148      15.28540202      15.29466427      15.30258421      15.30912097      15.31347285      15.31538247      15.31539674      15.31304750      15.30822586      15.30178867      15.29432322      15.28729024      15.28204714      15.27819095      15.27520192      15.27278348      15.27060037      15.26945318
        15.26908883      15.26883709      15.26826385      15.26687050      15.26511024      15.26161608      15.25523530      15.24391701      15.22372503      15.19265158      15.16703350      15.20007244      15.17653342      15.13827173      15.12137081      15.12267259      15.09350712      15.07421556      15.07472521      15.03880160
        15.01488005      15.01513353      14.92270153      15.12895095      15.15268124      15.08632369      15.11013898      15.04356748      15.06883081      15.01839407      15.06171552      15.09990730      15.14223496      15.13158096      15.08745487      15.04408520      15.01863516      15.06953441      15.06218152      15.11156472
        15.10079668      15.15594012      15.14380149      15.04552827      15.07244570      15.07261803      15.08661959      15.10759269      15.10788942      15.12458610      15.14968570      15.14994057      15.16900904      15.18565640      15.21229179      15.19478534      15.21938329      15.24596152      15.27075662      15.28824958
        15.30140666      15.31178750      15.32136127      15.33116905      15.34075898      15.34984577      15.35809646      15.36489997      15.37025313      15.37492302      15.37889614      15.38269994      15.38705350      15.39227777      15.39845774      15.40561477      15.41292907      15.41978522      15.42540015      15.42914879
        15.43093132      15.43022670      15.42708637      15.42197482      15.41544941      15.40760351      15.39858797      15.38977579      15.38204981      15.37631902      15.37200501      15.36864701      15.36556603      15.36282001      15.36050404      15.35908094      15.48400264      15.48073153      15.47595975      15.46982255
        15.46246794      15.45425011      15.44483511      15.43367369      15.41989671      15.40330899      15.38245091      15.35334230      15.31364534      15.26096238      15.19245012      15.10751752      15.00149044      14.86222307      14.68756379      14.49496966      14.50520719      14.64904894      14.65361952      14.69979735
        14.85680131      14.97003766      15.05176357      15.11309595      15.15958700      15.19484740      15.22230529      15.24382991      15.26100099      15.27481730      15.28685436      15.29809424      15.30842453      15.31784677      15.32570450      15.33131567      15.33469084      15.33520461      15.33310639      15.32891351
        15.32301995      15.31692582      15.31181980      15.30767214      15.30414613      15.30114020      15.29909885      15.29772940      15.29648529      15.29485617      15.29303355      15.29029768      15.28729167      15.28271014      15.27582963      15.26530425      15.24898718      15.22500540      15.19310378      15.19929413
        15.22572915      15.22934168      15.23834199      15.26749137      15.28818980      15.30375839      15.31628270      15.32685954      15.33673266      15.34667024      15.35612989      15.36482751      15.37251618      15.37899790      15.38443280      15.38934174      15.39366225      15.39808460      15.40330335      15.40944492
        15.41679123      15.42512358      15.43343937      15.44098243      15.44694358      15.45094034      15.45299960      15.45300612      15.45114737      15.44785185      15.44367087      15.43828868      15.43233823      15.42622816      15.42081228      15.41695687      15.41383971      15.41069136      15.40799212      15.40605492
        15.40478650      15.40462538      15.50438517      15.50097383      15.49537026      15.48783911      15.47876739      15.46864585      15.45699749      15.44368044      15.42810357      15.40998438      15.38793140      15.35793317      15.31858990      15.26906357      15.20761331      15.13496477      15.05023199      14.95314701
        14.86177875      14.82148997      14.86232792      14.93950127      15.01315539      15.07317199      15.12184266      15.16157196      15.19374244      15.21982533      15.24094310      15.25822811      15.27259270      15.28584226      15.29875249      15.31100782      15.32267278      15.33321508      15.34162402      15.34774843
        15.35098928      15.35194298      15.35100775      15.34758328      15.34308005      15.33841631      15.33431291      15.33069549      15.32725860      15.32477350      15.32255534      15.31996204      15.31689017      15.31380647      15.30989793      15.30590352      15.30090878      15.29484141      15.28741351      15.27824606
        15.26884841      15.26659367      15.27688001      15.29221895      15.30636639      15.31898475      15.33028691      15.34042904      15.35024102      15.36004094      15.36923922      15.37753595      15.38511107      15.39189934      15.39773589      15.40306329      15.40798944      15.41305952      15.41921837      15.42665032
        15.43561093      15.44504270      15.45365094      15.46094278      15.46660587      15.47049652      15.47282601      15.47386119      15.47349132      15.47226235      15.47049782      15.46774484      15.46440484      15.46075961      15.45737804      15.45420997      15.45082274      15.44734420      15.44489481      15.44383225
        15.44380888      15.44453050      15.51940397      15.51595277      15.50998731      15.50192468      15.49192197      15.48027997      15.46675419      15.45150792      15.43434677      15.41460430      15.39117107      15.36091238      15.32298855      15.27704456      15.22307476      15.16315718      15.09763469      15.02935933
        14.97264272      14.94831404      14.96353604      15.00451140      15.05068012      15.09277989      15.13043561      15.16361270      15.19224578      15.21633092      15.23636096      15.25359475      15.26865559      15.28298164      15.29715502      15.31068854      15.32378955      15.33609336      15.34621339      15.35434650
        15.36018286      15.36386374      15.36544991      15.36429742      15.36115400      15.35723113      15.35335056      15.34952815      15.34544539      15.34180598      15.33836715      15.33461304      15.33077994      15.32706590      15.32270138      15.31847438      15.31365319      15.30873807      15.30407737      15.29977972
        15.29697981      15.29757001      15.30317902      15.31213464      15.32216459      15.33229681      15.34227261      15.35183279      15.36121582      15.37068821      15.37968095      15.38804465      15.39606220      15.40335676      15.40961131      15.41554461      15.42117737      15.42717826      15.43474930      15.44377438
        15.45392694      15.46356247      15.47174552      15.47842936      15.48361089      15.48757020      15.49052841      15.49269626      15.49397028      15.49463328      15.49487074      15.49456157      15.49366495      15.49203483      15.48967729      15.48666641      15.48324284      15.47991191      15.47772445      15.47739197
        15.47815677      15.47896778      15.53011467      15.52658647      15.52051531      15.51204066      15.50114563      15.48814379      15.47310626      15.45650603      15.43778945      15.41634629      15.39161705      15.36106923      15.32463501      15.28267980      15.23567618      15.18645114      15.13549423      15.08439767
        15.04353882      15.02360415      15.02724897      15.04917135      15.07812949      15.10809796      15.13730830      15.16456201      15.18937291      15.21117901      15.23006849      15.24704643      15.26267614      15.27796522      15.29307840      15.30734129      15.32125760      15.33447945      15.34537416      15.35455578
        15.36183317      15.36692915      15.36987166      15.36996616      15.36760171      15.36429906      15.36056892      15.35659245      15.35231172      15.34810319      15.34398419      15.33976164      15.33580409      15.33202516      15.32793169      15.32443786      15.32084161      15.31757745      15.31496725      15.31330013
        15.31314883      15.31503949      15.31953471      15.32624866      15.33407698      15.34262034      15.35158715      15.36049773      15.36940125      15.37870235      15.38776983      15.39648531      15.40499317      15.41278262      15.41961131      15.42627280      15.43280195      15.44004843      15.44889674      15.45896468
        15.46914257      15.47822768      15.48596074      15.49232973      15.49749777      15.50166874      15.50527925      15.50851398      15.51143122      15.51398576      15.51610135      15.51773276      15.51845047      15.51815035      15.51665749      15.51455160      15.51202665      15.50972578      15.50827448      15.50841866
        15.50937615      15.51014606      15.53774561      15.53389412      15.52739419      15.51819496      15.50617946      15.49188720      15.47565155      15.45802198      15.43821456      15.41537069      15.38918966      15.35853838      15.32383411      15.28473544      15.24295559      15.20147861      15.16024553      15.11988729
        15.08751706      15.06970595      15.06753959      15.07797543      15.09635327      15.11835508      15.14132358      15.16338251      15.18411598      15.20342860      15.22126743      15.23809889      15.25429820      15.27048870      15.28615975      15.30072918      15.31469927      15.32767660      15.33813842      15.34708137