# File generated by Flopy version 3.7.0 on 06/05/2024 at 14:42:56.
BEGIN options
END options

BEGIN dimensions
  MAXBOUND  7355
END dimensions

BEGIN period  1
  1 1 1.30569042E-08
  1 2 1.25936514E-08
  1 3 1.07900602E-08
  1 4 9.46594281E-09
  1 5 8.32196868E-09
  1 6 8.17994206E-09
  1 7 8.42526584E-09
  1 8 9.18253308E-09
  1 9 9.63351214E-09
  1 10 1.07921226E-08
  1 11 1.12496614E-08
  1 12 1.09162251E-08
  1 13 1.12837885E-08
  1 14 1.21691714E-08
  1 15 1.40343136E-08
  1 16 1.59928469E-08
  1 17 2.04202030E-08
  1 18 2.58508296E-08
  1 19 3.01495917E-08
  1 20 3.36505697E-08
  1 21 3.20361261E-08
  1 22 2.77772939E-08
  1 23 2.66023755E-08
  1 24 2.69226158E-08
  1 25 2.55156977E-08
  1 26 2.60127715E-08
  1 27 2.64325072E-08
  1 28 2.58397544E-08
  1 29 2.34811168E-08
  1 30 1.92910416E-08
  1 31 1.58458999E-08
  1 32 1.32784208E-08
  1 33 1.16590019E-08
  1 34 1.19704538E-08
  1 35 1.27987781E-08
  1 36 1.28688013E-08
  1 37 1.20662825E-08
  1 38 1.15004750E-08
  1 39 1.09987648E-08
  1 40 1.09849851E-08
  1 41 1.20355663E-08
  1 42 1.33871144E-08
  1 43 1.54566541E-08
  1 44 1.72279490E-08
  1 45 1.73415498E-08
  1 46 1.59645265E-08
  1 47 1.50859276E-08
  1 48 1.54508166E-08
  1 49 1.70798686E-08
  1 50 1.82070546E-08
  1 51 1.84111426E-08
  1 52 1.72704940E-08
  1 53 1.69771521E-08
  1 54 1.47425998E-08
  1 55 1.23741286E-08
  1 56 1.14768358E-08
  1 57 1.10018972E-08
  1 58 1.03681708E-08
  1 59 9.98343943E-09
  1 60 9.77391901E-09
  1 61 1.05050579E-08
  1 62 1.18367285E-08
  1 63 1.26928788E-08
  1 64 1.28430622E-08
  1 65 1.29744081E-08
  1 66 1.37121904E-08
  1 67 1.45084195E-08
  1 68 1.50621127E-08
  1 69 1.56566891E-08
  1 70 1.66362810E-08
  1 71 1.85719814E-08
  1 72 1.97184378E-08
  1 73 2.04400963E-08
  1 74 1.91643328E-08
  1 75 1.69525812E-08
  1 76 1.69063226E-08
  1 77 1.61783073E-08
  1 78 1.64602811E-08
  1 79 1.71688441E-08
  1 80 1.78955197E-08
  1 81 1.79223881E-08
  1 82 1.85872262E-08
  1 83 1.75152813E-08
  1 84 1.55303164E-08
  1 85 1.39226831E-08
  1 86 1.23344628E-08
  1 87 1.03803145E-08
  1 88 9.39100609E-09
  1 89 8.32963348E-09
  1 90 8.56400502E-09
  1 91 9.18504125E-09
  1 92 9.73562121E-09
  1 93 9.99673716E-09
  1 94 1.03653408E-08
  1 95 1.14044151E-08
  1 96 1.26194442E-08
  1 97 1.21883372E-08
  1 98 1.21611471E-08
  1 99 1.19576287E-08
  1 100 1.16121759E-08
  1 101 1.16860441E-08
  1 102 1.05598148E-08
  1 103 9.18219673E-09
  1 104 8.42327544E-09
  1 105 7.65770159E-09
  1 106 7.44822390E-09
  1 107 7.10615225E-09
  1 108 7.63585203E-09
  1 109 8.41438121E-09
  1 110 8.78224137E-09
  1 111 8.60288160E-09
  1 112 9.04219927E-09
  1 113 1.07204544E-08
  1 114 1.17907961E-08
  1 115 1.28819811E-08
  1 116 1.52419523E-08
  1 117 2.04167728E-08
  1 118 2.55827990E-08
  1 119 2.75050185E-08
  1 120 2.64331132E-08
  1 121 2.46457029E-08
  1 122 2.50610542E-08
  1 123 2.39936147E-08
  1 124 2.54770170E-08
  1 125 2.85328739E-08
  1 126 2.72048575E-08
  1 127 2.54828171E-08
  1 128 2.32362211E-08
  1 129 1.91956899E-08
  1 130 1.55997092E-08
  1 131 1.52338258E-08
  1 132 1.42319178E-08
  1 133 1.45412158E-08
  1 134 1.49263223E-08
  1 135 1.52881178E-08
  1 136 1.52969431E-08
  1 137 1.32823588E-08
  1 138 1.31632644E-08
  1 139 1.35934906E-08
  1 140 1.39737377E-08
  1 141 1.49207355E-08
  1 142 1.65231232E-08
  1 143 1.74647374E-08
  1 144 1.83055999E-08
  1 145 1.80361422E-08
  1 146 1.85713469E-08
  1 147 2.01273661E-08
  1 148 2.09019316E-08
  1 149 2.05563047E-08
  1 150 1.99293673E-08
  1 151 1.84222276E-08
  1 152 1.69667611E-08
  1 153 1.64044586E-08
  1 154 1.58278494E-08
  1 155 1.53942048E-08
  1 156 1.43224726E-08
  1 157 1.32445721E-08
  1 158 1.29373188E-08
  1 159 1.24611577E-08
  1 160 1.36765508E-08
  1 161 1.42051272E-08
  1 162 1.36513695E-08
  1 163 1.35515072E-08
  1 164 1.29323583E-08
  1 165 1.25433834E-08
  1 166 1.32174501E-08
  1 167 1.36299024E-08
  1 168 1.47706039E-08
  1 169 1.65626106E-08
  1 170 1.80760793E-08
  1 171 1.89322448E-08
  1 172 1.91158886E-08
  1 173 1.91919811E-08
  1 174 1.77231308E-08
  1 175 1.68498788E-08
  1 176 1.67836920E-08
  1 177 1.64642157E-08
  1 178 1.61416874E-08
  1 179 1.73536458E-08
  1 180 1.73715641E-08
  1 181 1.54210563E-08
  1 182 1.40737211E-08
  1 183 1.39057867E-08
  1 184 1.24471050E-08
  1 185 1.13001980E-08
  1 186 9.88680588E-09
  1 187 8.94189175E-09
  1 188 8.98531614E-09
  1 189 8.63732042E-09
  1 190 9.19876850E-09
  1 191 1.01558046E-08
  1 192 1.09606834E-08
  1 193 1.18532429E-08
  1 194 1.27248694E-08
  1 195 1.27121302E-08
  1 196 1.19743242E-08
  1 197 1.14662627E-08
  1 198 1.10217053E-08
  1 199 1.17343849E-08
  1 200 1.14807485E-08
  1 201 1.02355611E-08
  1 202 9.00860933E-09
  1 203 8.47381415E-09
  1 204 8.04490266E-09
  1 205 8.30507393E-09
  1 206 8.00857802E-09
  1 207 8.35690010E-09
  1 208 8.48257128E-09
  1 209 8.58619682E-09
  1 210 8.31355253E-09
  1 211 8.74500787E-09
  1 212 9.33765103E-09
  1 213 1.02583594E-08
  1 214 1.24188918E-08
  1 215 1.53043552E-08
  1 216 1.80464184E-08
  1 217 2.09048328E-08
  1 218 2.19881744E-08
  1 219 2.01160197E-08
  1 220 1.82117455E-08
  1 221 1.94652279E-08
  1 222 2.18320642E-08
  1 223 2.45601492E-08
  1 224 2.76699160E-08
  1 225 2.73586988E-08
  1 226 2.43251094E-08
  1 227 2.07311548E-08
  1 228 1.64740087E-08
  1 229 1.50817389E-08
  1 230 1.64160574E-08
  1 231 1.74986997E-08
  1 232 1.79278178E-08
  1 233 1.82590050E-08
  1 234 2.00778494E-08
  1 235 1.91131896E-08
  1 236 1.80989671E-08
  1 237 1.75938391E-08
  1 238 1.73171420E-08
  1 239 1.73533871E-08
  1 240 1.83816420E-08
  1 241 1.92215507E-08
  1 242 1.82687377E-08
  1 243 1.75970565E-08
  1 244 1.81886755E-08
  1 245 2.02666838E-08
  1 246 2.23982330E-08
  1 247 2.37951176E-08
  1 248 2.00417873E-08
  1 249 1.70868720E-08
  1 250 1.72615222E-08
  1 251 1.82735361E-08
  1 252 1.93190168E-08
  1 253 2.20285185E-08
  1 254 2.17233646E-08
  1 255 1.92494526E-08
  1 256 1.81115048E-08
  1 257 1.67026370E-08
  1 258 1.73128114E-08
  1 259 1.66452931E-08
  1 260 1.63246291E-08
  1 261 1.71067846E-08
  1 262 1.64208140E-08
  1 263 1.66234532E-08
  1 264 1.65296402E-08
  1 265 1.61371203E-08
  1 266 1.51426804E-08
  1 267 1.56062608E-08
  1 268 1.63861864E-08
  1 269 1.91395763E-08
  1 270 1.99681334E-08
  1 271 1.87459385E-08
  1 272 1.97808407E-08
  1 273 1.81293903E-08
  1 274 1.64080657E-08
  1 275 1.50590759E-08
  1 276 1.38544674E-08
  1 277 1.38193546E-08
  1 278 1.28026408E-08
  1 279 1.21949279E-08
  1 280 1.15530541E-08
  1 281 1.16192665E-08
  1 282 1.24362824E-08
  1 283 1.38328184E-08
  1 284 1.39580269E-08
  1 285 1.34724383E-08
  1 286 1.24400551E-08
  1 287 1.24339724E-08
  1 288 1.24735830E-08
  1 289 1.37627582E-08
  1 290 1.46223310E-08
  1 291 1.38028566E-08
  1 292 1.29620898E-08
  1 293 1.26417386E-08
  1 294 1.27058324E-08
  1 295 1.19673233E-08
  1 296 1.16873333E-08
  1 297 1.12966780E-08
  1 298 1.12296166E-08
  1 299 1.19605122E-08
  1 300 1.30311849E-08
  1 301 8.89449427E-09
  1 302 8.85207719E-09
  1 303 8.29404375E-09
  1 304 8.32123814E-09
  1 305 8.48541537E-09
  1 306 8.55537344E-09
  1 307 8.66699057E-09
  1 308 8.80468148E-09
  1 309 9.03149664E-09
  1 310 9.80665719E-09
  1 311 1.06560534E-08
  1 312 1.16138174E-08
  1 313 1.31674998E-08
  1 314 1.48111105E-08
  1 315 1.70082811E-08
  1 316 1.95608783E-08
  1 317 1.98866242E-08
  1 318 1.87788086E-08
  1 319 1.76069331E-08
  1 320 1.68749914E-08
  1 321 1.81399084E-08
  1 322 2.02972785E-08
  1 323 2.08794463E-08
  1 324 1.98836983E-08
  1 325 1.97270247E-08
  1 326 1.86786209E-08
  1 327 1.70440118E-08
  1 328 1.79154958E-08
  1 329 2.07945240E-08
  1 330 2.34529927E-08
  1 331 2.25732049E-08
  1 332 2.22566318E-08
  1 333 2.11314054E-08
  1 334 2.05873953E-08
  1 335 1.87556395E-08
  1 336 1.84903809E-08
  1 337 1.86902251E-08
  1 338 2.03601749E-08
  1 339 2.06372089E-08
  1 340 1.98718436E-08
  1 341 1.62508274E-08
  1 342 1.52710736E-08
  1 343 1.63766376E-08
  1 344 1.69199618E-08
  1 345 1.93473165E-08
  1 346 1.96313069E-08
  1 347 1.90084030E-08
  1 348 1.79270219E-08
  1 349 1.90581068E-08
  1 350 2.08724314E-08
  1 351 2.33130271E-08
  1 352 2.53140956E-08
  1 353 2.46240479E-08
  1 354 2.24822413E-08
  1 355 2.03600503E-08
  1 356 1.96707258E-08
  1 357 2.06630828E-08
  1 358 1.97549872E-08
  1 359 1.88052709E-08
  1 360 1.90759302E-08
  1 361 1.84470005E-08
  1 362 1.76739485E-08
  1 363 1.69672702E-08
  1 364 1.67857847E-08
  1 365 1.64516742E-08
  1 366 1.66105958E-08
  1 367 1.81951174E-08
  1 368 1.71438303E-08
  1 369 1.61967068E-08
  1 370 1.60453777E-08
  1 371 1.67841277E-08
  1 372 1.74428276E-08
  1 373 1.59834079E-08
  1 374 1.35236360E-08
  1 375 1.17354695E-08
  1 376 1.04579222E-08
  1 377 1.01052807E-08
  1 378 1.05149537E-08
  1 379 9.86688563E-09
  1 380 1.02826323E-08
  1 381 1.23149593E-08
  1 382 1.42354162E-08
  1 383 1.52809049E-08
  1 384 1.53850270E-08
  1 385 1.55736122E-08
  1 386 1.63188002E-08
  1 387 1.74339765E-08
  1 388 1.76650468E-08
  1 389 1.69188328E-08
  1 390 1.37662590E-08
  1 391 1.24055329E-08
  1 392 1.23815238E-08
  1 393 1.31847448E-08
  1 394 1.37144116E-08
  1 395 1.43261572E-08
  1 396 1.46399932E-08
  1 397 1.51183026E-08
  1 398 1.44268480E-08
  1 399 1.28297184E-08
  1 400 1.21866515E-08
  1 401 7.03251691E-09
  1 402 7.43201721E-09
  1 403 7.94399671E-09
  1 404 8.80557916E-09
  1 405 9.34437839E-09
  1 406 9.29677097E-09
  1 407 1.00143199E-08
  1 408 1.09912056E-08
  1 409 1.18241520E-08
  1 410 1.18836068E-08
  1 411 1.14464342E-08
  1 412 1.23814347E-08
  1 413 1.24820488E-08
  1 414 1.55374163E-08
  1 415 2.03903368E-08
  1 416 2.08090981E-08
  1 417 1.80881235E-08
  1 418 1.66838841E-08
  1 419 1.71958422E-08
  1 420 1.86081251E-08
  1 421 1.89846683E-08
  1 422 1.83540258E-08
  1 423 1.93846904E-08
  1 424 2.00998995E-08
  1 425 2.19304905E-08
  1 426 2.35468388E-08
  1 427 2.53169520E-08
  1 428 2.72159008E-08
  1 429 2.77293058E-08
  1 430 2.68443161E-08
  1 431 2.76683866E-08
  1 432 2.49212621E-08
  1 433 1.99750197E-08
  1 434 1.85922257E-08
  1 435 1.94774476E-08
  1 436 2.10793658E-08
  1 437 2.33121087E-08
  1 438 2.46004491E-08
  1 439 2.11431225E-08
  1 440 1.76558507E-08
  1 441 1.55900848E-08
  1 442 1.47648771E-08
  1 443 1.48380809E-08
  1 444 1.62907831E-08
  1 445 1.76297018E-08
  1 446 1.83291622E-08
  1 447 1.91446866E-08
  1 448 2.03487312E-08
  1 449 2.25119743E-08
  1 450 2.56686031E-08
  1 451 2.42933144E-08
  1 452 2.46526020E-08
  1 453 2.19025843E-08
  1 454 2.04661970E-08
  1 455 2.04279898E-08
  1 456 2.11078306E-08
  1 457 2.04475631E-08
  1 458 1.88903526E-08
  1 459 1.83059002E-08
  1 460 1.79306142E-08
  1 461 1.72788765E-08
  1 462 1.60808796E-08
  1 463 1.56974082E-08
  1 464 1.62055187E-08
  1 465 1.79508189E-08
  1 466 1.77934691E-08
  1 467 1.59084948E-08
  1 468 1.55997700E-08
  1 469 1.47862352E-08
  1 470 1.54336639E-08
  1 471 1.65594529E-08
  1 472 1.39659946E-08
  1 473 1.16217799E-08
  1 474 1.09342187E-08
  1 475 1.11744819E-08
  1 476 1.13918659E-08
  1 477 1.08230937E-08
  1 478 1.08344374E-08
  1 479 1.19256403E-08
  1 480 1.34628986E-08
  1 481 1.44017814E-08
  1 482 1.60222185E-08
  1 483 1.55202323E-08
  1 484 1.66425219E-08
  1 485 1.93431925E-08
  1 486 2.26170718E-08
  1 487 2.48391340E-08
  1 488 2.18070849E-08
  1 489 1.85198759E-08
  1 490 1.80643680E-08
  1 491 1.78434045E-08
  1 492 1.82682290E-08
  1 493 1.73982516E-08
  1 494 1.66920603E-08
  1 495 1.68322378E-08
  1 496 1.58419059E-08
  1 497 1.39904422E-08
  1 498 1.27175073E-08
  1 499 1.26588209E-08
  1 500 1.30495678E-08
  1 501 7.94591584E-09
  1 502 8.63475498E-09
  1 503 9.66260545E-09
  1 504 1.00585994E-08
  1 505 9.99066737E-09
  1 506 1.10147993E-08
  1 507 1.09646074E-08
  1 508 1.06597282E-08
  1 509 1.11102191E-08
  1 510 1.14253286E-08
  1 511 1.25792492E-08
  1 512 1.47849270E-08
  1 513 1.80281415E-08
  1 514 2.01537480E-08
  1 515 1.94951096E-08
  1 516 1.82104918E-08
  1 517 1.80997186E-08
  1 518 1.76493858E-08
  1 519 1.77296701E-08
  1 520 1.98750934E-08
  1 521 2.31522921E-08
  1 522 2.54785068E-08
  1 523 2.60199979E-08
  1 524 2.72730586E-08
  1 525 2.67016346E-08
  1 526 2.67546815E-08
  1 527 2.78080467E-08
  1 528 2.74572415E-08
  1 529 2.64337587E-08
  1 530 2.53548518E-08
  1 531 2.24102587E-08
  1 532 2.14192595E-08
  1 533 2.11930460E-08
  1 534 2.22732220E-08
  1 535 2.43895191E-08
  1 536 2.49004420E-08
  1 537 2.45886578E-08
  1 538 2.01986726E-08
  1 539 1.63638105E-08
  1 540 1.40516954E-08
  1 541 1.31667527E-08
  1 542 1.36256736E-08
  1 543 1.45592604E-08
  1 544 1.66518965E-08
  1 545 1.70793643E-08
  1 546 1.73491825E-08
  1 547 1.92163146E-08
  1 548 1.95576840E-08
  1 549 2.11604957E-08
  1 550 2.15180324E-08
  1 551 2.17258158E-08
  1 552 2.17669105E-08
  1 553 2.10831248E-08
  1 554 2.10599138E-08
  1 555 1.96573291E-08
  1 556 2.00181942E-08
  1 557 1.98342832E-08
  1 558 1.90632502E-08
  1 559 1.77347853E-08
  1 560 1.72882045E-08
  1 561 1.76695362E-08
  1 562 1.76006220E-08
  1 563 1.76492225E-08
  1 564 1.67863683E-08
  1 565 1.50053885E-08
  1 566 1.37694608E-08
  1 567 1.24098355E-08
  1 568 1.24126313E-08
  1 569 1.14203820E-08
  1 570 1.14423487E-08
  1 571 1.15576378E-08
  1 572 1.14108276E-08
  1 573 1.20827722E-08
  1 574 1.17731208E-08
  1 575 1.18442254E-08
  1 576 1.27635066E-08
  1 577 1.34729437E-08
  1 578 1.45909580E-08
  1 579 1.49506837E-08
  1 580 1.50212202E-08
  1 581 1.46408467E-08
  1 582 1.67616090E-08
  1 583 2.01544716E-08
  1 584 2.37201819E-08
  1 585 2.51912433E-08
  1 586 2.36999577E-08
  1 587 2.28541799E-08
  1 588 2.13128764E-08
  1 589 1.91540868E-08
  1 590 1.81557021E-08
  1 591 1.83151147E-08
  1 592 1.74237717E-08
  1 593 1.71615198E-08
  1 594 1.70215613E-08
  1 595 1.55018248E-08
  1 596 1.40197872E-08
  1 597 1.25671835E-08
  1 598 1.31939717E-08
  1 599 1.45348009E-08
  1 600 1.60753529E-08
  1 601 1.01640858E-08
  1 602 9.62178264E-09
  1 603 1.01293144E-08
  1 604 1.08321287E-08
  1 605 1.10370082E-08
  1 606 1.14419023E-08
  1 607 1.16585617E-08
  1 608 1.30879164E-08
  1 609 1.35304055E-08
  1 610 1.37684263E-08
  1 611 1.48989975E-08
  1 612 1.56087284E-08
  1 613 1.73774369E-08
  1 614 1.93263025E-08
  1 615 1.88816989E-08
  1 616 1.89026217E-08
  1 617 1.97851764E-08
  1 618 2.21736333E-08
  1 619 2.60914261E-08
  1 620 3.10887858E-08
  1 621 2.97559778E-08
  1 622 2.79524762E-08
  1 623 2.71420042E-08
  1 624 2.66645757E-08
  1 625 2.55301419E-08
  1 626 2.24772170E-08
  1 627 2.28188339E-08
  1 628 2.19549065E-08
  1 629 2.03330594E-08
  1 630 1.99056311E-08
  1 631 2.02091428E-08
  1 632 2.09201556E-08
  1 633 2.34414668E-08
  1 634 2.54293544E-08
  1 635 2.43095299E-08
  1 636 2.02478941E-08
  1 637 1.76025125E-08
  1 638 1.53126962E-08
  1 639 1.49196541E-08
  1 640 1.45819575E-08
  1 641 1.41196918E-08
  1 642 1.51520460E-08
  1 643 1.67275807E-08
  1 644 1.66602526E-08
  1 645 1.85262562E-08
  1 646 2.09414242E-08
  1 647 2.13938663E-08
  1 648 2.18356919E-08
  1 649 2.16038381E-08
  1 650 2.21484716E-08
  1 651 2.06294868E-08
  1 652 2.03328036E-08
  1 653 2.19643489E-08
  1 654 2.25632249E-08
  1 655 2.18042315E-08
  1 656 1.90912899E-08
  1 657 1.59696874E-08
  1 658 1.43866977E-08
  1 659 1.36291946E-08
  1 660 1.39276599E-08
  1 661 1.34951924E-08
  1 662 1.20202638E-08
  1 663 1.04601634E-08
  1 664 1.02438672E-08
  1 665 1.06991713E-08
  1 666 1.15778835E-08
  1 667 1.18791101E-08
  1 668 1.12108687E-08
  1 669 1.06126305E-08
  1 670 1.22192178E-08
  1 671 1.28096311E-08
  1 672 1.32779881E-08
  1 673 1.35621080E-08
  1 674 1.52887368E-08
  1 675 1.68023202E-08
  1 676 1.87239583E-08
  1 677 1.77024791E-08
  1 678 1.50150010E-08
  1 679 1.42706138E-08
  1 680 1.56247989E-08
  1 681 1.90678071E-08
  1 682 2.15158687E-08
  1 683 2.07534790E-08
  1 684 1.99449199E-08
  1 685 1.92558482E-08
  1 686 1.99665893E-08
  1 687 1.98952682E-08
  1 688 1.98158857E-08
  1 689 1.94826151E-08
  1 690 1.94544104E-08
  1 691 1.83895815E-08
  1 692 1.73883968E-08
  1 693 1.61008173E-08
  1 694 1.55869742E-08
  1 695 1.42489556E-08
  1 696 1.37730539E-08
  1 697 1.51437194E-08
  1 698 1.68666352E-08
  1 699 1.85510383E-08
  1 700 2.00476451E-08
  1 701 9.60500259E-09
  1 702 1.00979663E-08
  1 703 9.73132218E-09
  1 704 1.09778305E-08
  1 705 1.28643598E-08
  1 706 1.47270456E-08
  1 707 1.63086402E-08
  1 708 1.62672252E-08
  1 709 1.62703908E-08
  1 710 1.72072935E-08
  1 711 1.69234628E-08
  1 712 1.66273405E-08
  1 713 1.78559251E-08
  1 714 1.81479787E-08
  1 715 1.81091009E-08
  1 716 1.95554305E-08
  1 717 2.25223180E-08
  1 718 2.68575009E-08
  1 719 2.92449634E-08
  1 720 2.70271816E-08
  1 721 2.50597815E-08
  1 722 2.37488488E-08
  1 723 2.26665107E-08
  1 724 2.17993342E-08
  1 725 2.12727514E-08
  1 726 1.93995794E-08
  1 727 1.90769837E-08
  1 728 1.94494195E-08
  1 729 2.01086995E-08
  1 730 1.93178073E-08
  1 731 1.95177579E-08
  1 732 2.15857431E-08
  1 733 2.35514883E-08
  1 734 2.37434591E-08
  1 735 2.11544571E-08
  1 736 2.02476876E-08
  1 737 1.95660348E-08
  1 738 1.71669740E-08
  1 739 1.66643544E-08
  1 740 1.59578505E-08
  1 741 1.65647250E-08
  1 742 1.67138259E-08
  1 743 1.94997421E-08
  1 744 2.08378915E-08
  1 745 2.09796165E-08
  1 746 2.07907921E-08
  1 747 2.08192946E-08
  1 748 2.29521825E-08
  1 749 2.34420986E-08
  1 750 2.23727301E-08
  1 751 2.18245968E-08
  1 752 2.20018372E-08
  1 753 2.21866478E-08
  1 754 2.20380030E-08
  1 755 1.84482089E-08
  1 756 1.51995848E-08
  1 757 1.30601782E-08
  1 758 1.27309442E-08
  1 759 1.20572055E-08
  1 760 9.87491654E-09
  1 761 8.85616694E-09
  1 762 8.62039199E-09
  1 763 9.03560065E-09
  1 764 1.01240189E-08
  1 765 1.07763758E-08
  1 766 1.15578663E-08
  1 767 1.19334484E-08
  1 768 1.22416787E-08
  1 769 1.22923073E-08
  1 770 1.20384155E-08
  1 771 1.25888915E-08
  1 772 1.25664334E-08
  1 773 1.42739767E-08
  1 774 1.70550760E-08
  1 775 1.90420045E-08
  1 776 1.85048797E-08
  1 777 1.63965671E-08
  1 778 1.64609668E-08
  1 779 1.67532719E-08
  1 780 1.85243438E-08
  1 781 1.94868402E-08
  1 782 1.93964991E-08
  1 783 1.85106363E-08
  1 784 1.83201147E-08
  1 785 1.86853488E-08
  1 786 1.90469096E-08
  1 787 2.00687232E-08
  1 788 2.01908163E-08
  1 789 1.99010021E-08
  1 790 2.08994831E-08
  1 791 1.77367250E-08
  1 792 1.58335991E-08
  1 793 1.55126439E-08
  1 794 1.58828199E-08
  1 795 1.73277213E-08
  1 796 1.92996088E-08
  1 797 2.08115946E-08
  1 798 2.17726276E-08
  1 799 2.11113105E-08
  1 800 1.82637845E-08
  1 801 1.35681669E-08
  1 802 1.51486790E-08
  1 803 1.65861160E-08
  1 804 1.74387258E-08
  1 805 1.72256104E-08
  1 806 1.71886203E-08
  1 807 1.83307274E-08
  1 808 1.81799990E-08
  1 809 1.70172029E-08
  1 810 1.62149877E-08
  1 811 1.89588484E-08
  1 812 2.06125343E-08
  1 813 2.04161552E-08
  1 814 2.11644185E-08
  1 815 2.09119153E-08
  1 816 2.22125649E-08
  1 817 2.49497896E-08
  1 818 2.76833141E-08
  1 819 2.77945654E-08
  1 820 2.50539432E-08
  1 821 2.02532964E-08
  1 822 1.75960068E-08
  1 823 1.65158284E-08
  1 824 1.70946387E-08
  1 825 1.76421689E-08
  1 826 1.87126096E-08
  1 827 1.81236595E-08
  1 828 1.67744573E-08
  1 829 1.62513347E-08
  1 830 1.98267526E-08
  1 831 2.20229867E-08
  1 832 2.21001118E-08
  1 833 2.22925844E-08
  1 834 2.33601337E-08
  1 835 2.19501721E-08
  1 836 1.97713138E-08
  1 837 1.84824897E-08
  1 838 1.66883373E-08
  1 839 1.60262158E-08
  1 840 1.60303626E-08
  1 841 1.80434175E-08
  1 842 1.91358551E-08
  1 843 2.02939027E-08
  1 844 2.20085426E-08
  1 845 2.19698647E-08
  1 846 2.31125240E-08
  1 847 2.35661719E-08
  1 848 2.21736523E-08
  1 849 1.98769366E-08
  1 850 1.93514205E-08
  1 851 1.98177739E-08
  1 852 1.99964895E-08
  1 853 1.87486996E-08
  1 854 1.61068959E-08
  1 855 1.57180918E-08
  1 856 1.54093099E-08
  1 857 1.47748468E-08
  1 858 1.41304620E-08
  1 859 1.23587623E-08
  1 860 1.05452021E-08
  1 861 9.65237118E-09
  1 862 9.94563889E-09
  1 863 1.04027827E-08
  1 864 1.09789745E-08
  1 865 1.16491758E-08
  1 866 1.19113068E-08
  1 867 1.15572889E-08
  1 868 1.15235869E-08
  1 869 1.09548242E-08
  1 870 1.14318999E-08
  1 871 1.26624934E-08
  1 872 1.48202127E-08
  1 873 1.77931952E-08
  1 874 2.03270155E-08
  1 875 1.89381759E-08
  1 876 1.70527204E-08
  1 877 1.60618611E-08
  1 878 1.53451050E-08
  1 879 1.56298265E-08
  1 880 1.59040874E-08
  1 881 1.57521016E-08
  1 882 1.67366801E-08
  1 883 1.65228743E-08
  1 884 1.65680829E-08
  1 885 1.73575273E-08
  1 886 1.75147729E-08
  1 887 1.79530735E-08
  1 888 1.84800817E-08
  1 889 1.76428298E-08
  1 890 1.63666038E-08
  1 891 1.56134801E-08
  1 892 1.62841692E-08
  1 893 1.86904858E-08
  1 894 2.03960834E-08
  1 895 2.19408965E-08
  1 896 2.46411041E-08
  1 897 2.46716954E-08
  1 898 2.46435031E-08
  1 899 2.13470160E-08
  1 900 1.84574951E-08
  1 901 1.92839842E-08
  1 902 1.85167316E-08
  1 903 1.72841767E-08
  1 904 1.55974252E-08
  1 905 1.70916414E-08
  1 906 1.85162592E-08
  1 907 1.75824240E-08
  1 908 1.85977711E-08
  1 909 2.18365873E-08
  1 910 2.47560957E-08
  1 911 2.31068689E-08
  1 912 2.00322260E-08
  1 913 1.92630587E-08
  1 914 1.92832740E-08
  1 915 2.08752879E-08
  1 916 2.41528812E-08
  1 917 2.68673462E-08
  1 918 2.66298866E-08
  1 919 2.18633614E-08
  1 920 1.82059454E-08
  1 921 1.68328302E-08
  1 922 1.62994605E-08
  1 923 1.65414943E-08
  1 924 1.66646813E-08
  1 925 1.65056674E-08
  1 926 1.50642936E-08
  1 927 1.37375280E-08
  1 928 1.40036225E-08
  1 929 1.65908922E-08
  1 930 1.66309224E-08
  1 931 1.74544257E-08
  1 932 2.08570048E-08
  1 933 2.24336584E-08
  1 934 2.19162557E-08
  1 935 2.09764862E-08
  1 936 1.92892273E-08
  1 937 1.83600702E-08
  1 938 1.65029030E-08
  1 939 1.66423449E-08
  1 940 1.69355860E-08
  1 941 1.80764048E-08
  1 942 1.94711217E-08
  1 943 2.09259959E-08
  1 944 2.11224704E-08
  1 945 2.12386148E-08
  1 946 1.92529966E-08
  1 947 1.74696506E-08
  1 948 1.79614350E-08
  1 949 1.86998437E-08
  1 950 1.84522012E-08
  1 951 1.75799109E-08
  1 952 1.76506089E-08
  1 953 1.78241649E-08
  1 954 1.68714712E-08
  1 955 1.73600266E-08
  1 956 1.70353861E-08
  1 957 1.52176855E-08
  1 958 1.32639678E-08
  1 959 1.17785442E-08
  1 960 1.08823508E-08
  1 961 1.08077597E-08
  1 962 1.13562839E-08
  1 963 1.07873736E-08
  1 964 1.07371713E-08
  1 965 1.10368672E-08
  1 966 1.14479839E-08
  1 967 1.14861386E-08
  1 968 1.12170868E-08
  1 969 1.18223980E-08
  1 970 1.28345773E-08
  1 971 1.51222470E-08
  1 972 1.78271339E-08
  1 973 1.89239351E-08
  1 974 1.80056906E-08
  1 975 1.66710421E-08
  1 976 1.54152428E-08
  1 977 1.32900464E-08
  1 978 1.14726367E-08
  1 979 1.12741030E-08
  1 980 1.20543881E-08
  1 981 1.36601621E-08
  1 982 1.43879567E-08
  1 983 1.34540220E-08
  1 984 1.21178318E-08
  1 985 1.23221116E-08
  1 986 1.24297867E-08
  1 987 1.26660123E-08
  1 988 1.27266166E-08
  1 989 1.33046470E-08
  1 990 1.41831638E-08
  1 991 1.49622528E-08
  1 992 1.77925120E-08
  1 993 1.98389352E-08
  1 994 2.10876146E-08
  1 995 2.17138003E-08
  1 996 2.20868636E-08
  1 997 2.04304957E-08
  1 998 1.92034808E-08
  1 999 1.80028102E-08
  1 1000 1.74778301E-08
  1 1001 1.63002039E-08
  1 1002 1.47465802E-08
  1 1003 1.41742335E-08
  1 1004 1.47650346E-08
  1 1005 1.61540983E-08
  1 1006 1.80229285E-08
  1 1007 2.03247968E-08
  1 1008 2.23351596E-08
  1 1009 2.22428388E-08
  1 1010 2.26727912E-08
  1 1011 2.04539154E-08
  1 1012 1.78081333E-08
  1 1013 1.72939185E-08
  1 1014 1.78298211E-08
  1 1015 2.01957133E-08
  1 1016 2.30268919E-08
  1 1017 2.21940921E-08
  1 1018 1.97629029E-08
  1 1019 1.76586217E-08
  1 1020 1.62124892E-08
  1 1021 1.62124892E-08
  1 1022 1.62124892E-08
  1 1023 1.62124892E-08
  1 1024 1.65423196E-08
  1 1025 1.74671721E-08
  1 1026 1.59723623E-08
  1 1027 1.32889421E-08
  1 1028 1.13728973E-08
  1 1029 1.14020013E-08
  1 1030 1.27374927E-08
  1 1031 1.28149409E-08
  1 1032 1.38645237E-08
  1 1033 1.65757555E-08
  1 1034 1.86992735E-08
  1 1035 1.95744322E-08
  1 1036 2.00620050E-08
  1 1037 1.92344324E-08
  1 1038 1.77893936E-08
  1 1039 1.63549092E-08
  1 1040 1.60983046E-08
  1 1041 1.67970948E-08
  1 1042 1.84682790E-08
  1 1043 1.91545560E-08
  1 1044 1.86777287E-08
  1 1045 1.78457784E-08
  1 1046 1.61425528E-08
  1 1047 1.51226485E-08
  1 1048 1.43612932E-08
  1 1049 1.39919690E-08
  1 1050 1.51957812E-08
  1 1051 1.72628540E-08
  1 1052 1.76423421E-08
  1 1053 1.73010861E-08
  1 1054 1.76509073E-08
  1 1055 1.91944718E-08
  1 1056 2.00330709E-08
  1 1057 2.11309529E-08
  1 1058 1.90138260E-08
  1 1059 1.70238621E-08
  1 1060 1.56690796E-08
  1 1061 1.50836047E-08
  1 1062 1.42699131E-08
  1 1063 1.32809803E-08
  1 1064 1.32809803E-08
  1 1065 1.32809803E-08
  1 1066 1.32809803E-08
  1 1067 1.19429104E-08
  1 1068 1.16565873E-08
  1 1069 1.14233109E-08
  1 1070 1.19538034E-08
  1 1071 1.19546102E-08
  1 1072 1.20847515E-08
  1 1073 1.28255576E-08
  1 1074 1.32841530E-08
  1 1075 1.53176831E-08
  1 1076 1.80632248E-08
  1 1077 1.88583024E-08
  1 1078 1.83026164E-08
  1 1079 1.59943293E-08
  1 1080 1.42620961E-08
  1 1081 1.34408311E-08
  1 1082 1.28845673E-08
  1 1083 1.20609430E-08
  1 1084 1.21978488E-08
  1 1085 1.34027622E-08
  1 1086 1.29521480E-08
  1 1087 1.22725785E-08
  1 1088 1.19861601E-08
  1 1089 1.09531949E-08
  1 1090 1.11252477E-08
  1 1091 1.08471044E-08
  1 1092 1.08660317E-08
  1 1093 1.16919793E-08
  1 1094 1.24756130E-08
  1 1095 1.36409941E-08
  1 1096 1.48290050E-08
  1 1097 1.65075341E-08
  1 1098 1.72349078E-08
  1 1099 1.80747679E-08
  1 1100 1.80602747E-08
  1 1101 1.76673297E-08
  1 1102 1.90115732E-08
  1 1103 1.88504811E-08
  1 1104 1.77997367E-08
  1 1105 1.62951150E-08
  1 1106 1.51392628E-08
  1 1107 1.37896033E-08
  1 1108 1.28626501E-08
  1 1109 1.24502259E-08
  1 1110 1.36341839E-08
  1 1111 1.57420685E-08
  1 1112 1.82397611E-08
  1 1113 2.08432834E-08
  1 1114 2.37432328E-08
  1 1115 2.30373239E-08
  1 1116 1.87305620E-08
  1 1117 1.60023448E-08
  1 1118 1.51902573E-08
  1 1119 1.55614376E-08
  1 1120 1.71696763E-08
  1 1121 1.85997764E-08
  1 1122 2.02433581E-08
  1 1123 2.04583909E-08
  1 1124 2.04410969E-08
  1 1125 1.88933368E-08
  1 1126 1.88933368E-08
  1 1127 1.88933368E-08
  1 1128 1.88933368E-08
  1 1129 1.79534182E-08
  1 1130 1.79534182E-08
  1 1131 1.79534182E-08
  1 1132 1.79534182E-08
  1 1133 1.79534182E-08
  1 1134 1.79534182E-08
  1 1135 1.79534182E-08
  1 1136 1.79534182E-08
  1 1137 1.79534182E-08
  1 1138 1.79534182E-08
  1 1139 1.79534182E-08
  1 1140 1.79534182E-08
  1 1141 1.79534182E-08
  1 1142 1.79534182E-08
  1 1143 1.79534182E-08
  1 1144 1.79534182E-08
  1 1145 1.79534182E-08
  1 1146 1.79534182E-08
  1 1147 1.79534182E-08
  1 1148 1.79534182E-08
  1 1149 1.79534182E-08
  1 1150 1.79534182E-08
  1 1151 1.79534182E-08
  1 1152 1.79534182E-08
  1 1153 1.79534182E-08
  1 1154 1.79534182E-08
  1 1155 1.79534182E-08
  1 1156 1.79534182E-08
  1 1157 1.79534182E-08
  1 1158 1.79534182E-08
  1 1159 1.79534182E-08
  1 1160 1.79534182E-08
  1 1161 1.79534182E-08
  1 1162 1.79534182E-08
  1 1163 1.79534182E-08
  1 1164 1.79534182E-08
  1 1165 1.79534182E-08
  1 1166 1.79534182E-08
  1 1167 1.79534182E-08
  1 1168 1.79534182E-08
  1 1169 1.67537042E-08
  1 1170 1.67537042E-08
  1 1171 1.67537042E-08
  1 1172 1.67537042E-08
  1 1173 1.47561664E-08
  1 1174 1.30863060E-08
  1 1175 1.23808926E-08
  1 1176 1.24428004E-08
  1 1177 1.27038094E-08
  1 1178 1.37808904E-08
  1 1179 1.55665768E-08
  1 1180 1.68932415E-08
  1 1181 1.86519823E-08
  1 1182 1.85833041E-08
  1 1183 1.79163615E-08
  1 1184 1.52616703E-08
  1 1185 1.33206782E-08
  1 1186 1.21635979E-08
  1 1187 1.27654515E-08
  1 1188 1.40662064E-08
  1 1189 1.58788415E-08
  1 1190 1.69541078E-08
  1 1191 1.83366123E-08
  1 1192 1.75444373E-08
  1 1193 1.55528709E-08
  1 1194 1.44031805E-08
  1 1195 1.30114655E-08
  1 1196 1.31186183E-08
  1 1197 1.47627364E-08
  1 1198 1.55981858E-08
  1 1199 1.74187182E-08
  1 1200 1.68843890E-08
  1 1201 1.55170299E-08
  1 1202 1.59947453E-08
  1 1203 1.80693927E-08
  1 1204 1.83240500E-08
  1 1205 1.66609675E-08
  1 1206 1.55046633E-08
  1 1207 1.56274852E-08
  1 1208 1.57057128E-08
  1 1209 1.48061664E-08
  1 1210 1.39455602E-08
  1 1211 1.39455602E-08
  1 1212 1.39455602E-08
  1 1213 1.39455602E-08
  1 1214 1.33312583E-08
  1 1215 1.33312583E-08
  1 1216 1.33312583E-08
  1 1217 1.33312583E-08
  1 1218 1.33312583E-08
  1 1219 1.33312583E-08
  1 1220 1.33312583E-08
  1 1221 1.33312583E-08
  1 1222 1.33312583E-08
  1 1223 1.33312583E-08
  1 1224 1.33312583E-08
  1 1225 1.33312583E-08
  1 1226 1.33312583E-08
  1 1227 1.33312583E-08
  1 1228 1.33312583E-08
  1 1229 1.33312583E-08
  1 1230 1.33312583E-08
  1 1231 1.33312583E-08
  1 1232 1.33312583E-08
  1 1233 1.33312583E-08
  1 1234 1.33312583E-08
  1 1235 1.33312583E-08
  1 1236 1.33312583E-08
  1 1237 1.33312583E-08
  1 1238 1.33312583E-08
  1 1239 1.33312583E-08
  1 1240 1.33312583E-08
  1 1241 1.33312583E-08
  1 1242 1.33312583E-08
  1 1243 1.33312583E-08
  1 1244 1.33312583E-08
  1 1245 1.33312583E-08
  1 1246 1.33312583E-08
  1 1247 1.33312583E-08
  1 1248 1.33312583E-08
  1 1249 1.33312583E-08
  1 1250 1.33312583E-08
  1 1251 1.33312583E-08
  1 1252 1.33312583E-08
  1 1253 1.33312583E-08
  1 1254 1.25576609E-08
  1 1255 1.25576609E-08
  1 1256 1.25576609E-08
  1 1257 1.25576609E-08
  1 1258 1.23384193E-08
  1 1259 1.26923082E-08
  1 1260 1.28106599E-08
  1 1261 1.26789335E-08
  1 1262 1.46413416E-08
  1 1263 1.66123453E-08
  1 1264 1.95231775E-08
  1 1265 1.95668017E-08
  1 1266 2.00733925E-08
  1 1267 1.93722821E-08
  1 1268 1.66055777E-08
  1 1269 1.42023294E-08
  1 1270 1.37575852E-08
  1 1271 1.37120395E-08
  1 1272 1.43156303E-08
  1 1273 1.42629107E-08
  1 1274 1.40465591E-08
  1 1275 1.40447005E-08
  1 1276 1.37613099E-08
  1 1277 1.32969240E-08
  1 1278 1.24203967E-08
  1 1279 1.18226195E-08
  1 1280 1.18618025E-08
  1 1281 1.12666513E-08
  1 1282 1.23186825E-08
  1 1283 1.33060262E-08
  1 1284 1.32772546E-08
  1 1285 1.29074457E-08
  1 1286 1.46406754E-08
  1 1287 1.75238462E-08
  1 1288 1.83424552E-08
  1 1289 1.82495034E-08