# File generated by Flopy version 3.6.0 on 07/18/2024 at 12:24:21.
BEGIN options
  BUDGET  FILEOUT  Reference.cbb
  HEAD  FILEOUT  Reference.hds
END options

BEGIN period  1
  SAVE  HEAD  ALL
  SAVE  BUDGET  ALL
  PRINT  HEAD  LAST
END period  1

