# File generated by Flopy version 3.6.0 on 10/31/2024 at 14:01:15.
BEGIN options
END options

BEGIN dimensions
  MAXBOUND  5000
END dimensions

BEGIN period  1
  1 1 1.09257762E-08
  1 2 1.15146667E-08
  1 3 1.18189872E-08
  1 4 1.22438374E-08
  1 5 1.28548845E-08
  1 6 1.32705421E-08
  1 7 1.34704613E-08
  1 8 1.37149468E-08
  1 9 1.39191138E-08
  1 10 1.38917702E-08
  1 11 1.41031533E-08
  1 12 1.42731624E-08
  1 13 1.41536501E-08
  1 14 1.47152518E-08
  1 15 1.47527073E-08
  1 16 1.46488000E-08
  1 17 1.47652091E-08
  1 18 1.45452665E-08
  1 19 1.48822544E-08
  1 20 1.49578102E-08
  1 21 1.49079717E-08
  1 22 1.48849076E-08
  1 23 1.48714519E-08
  1 24 1.47311220E-08
  1 25 1.49918764E-08
  1 26 1.48911645E-08
  1 27 1.47974806E-08
  1 28 1.52853349E-08
  1 29 1.56943072E-08
  1 30 1.55629680E-08
  1 31 1.57184045E-08
  1 32 1.57629662E-08
  1 33 1.58025276E-08
  1 34 1.61108031E-08
  1 35 1.59813445E-08
  1 36 1.60214149E-08
  1 37 1.63282468E-08
  1 38 1.62886849E-08
  1 39 1.61655078E-08
  1 40 1.67578251E-08
  1 41 1.70777550E-08
  1 42 1.70369362E-08
  1 43 1.69868610E-08
  1 44 1.72947518E-08
  1 45 1.72489954E-08
  1 46 1.74235093E-08
  1 47 1.72392781E-08
  1 48 1.72807229E-08
  1 49 1.72030927E-08
  1 50 1.70852003E-08
  1 51 1.70236996E-08
  1 52 1.68364930E-08
  1 53 1.64141724E-08
  1 54 1.62049831E-08
  1 55 1.61904891E-08
  1 56 1.62418046E-08
  1 57 1.61644410E-08
  1 58 1.58471564E-08
  1 59 1.54598718E-08
  1 60 1.52129391E-08
  1 61 1.50109972E-08
  1 62 1.49396013E-08
  1 63 1.45589106E-08
  1 64 1.40063349E-08
  1 65 1.37105056E-08
  1 66 1.31464186E-08
  1 67 1.24973759E-08
  1 68 1.19070777E-08
  1 69 1.17126313E-08
  1 70 1.14554332E-08
  1 71 1.11511583E-08
  1 72 1.07503100E-08
  1 73 1.04640586E-08
  1 74 1.04608468E-08
  1 75 1.06355445E-08
  1 76 1.03384932E-08
  1 77 1.03603138E-08
  1 78 1.00051410E-08
  1 79 1.00373003E-08
  1 80 1.00094020E-08
  1 81 1.02375077E-08
  1 82 9.79651071E-09
  1 83 9.53248303E-09
  1 84 9.24525288E-09
  1 85 9.48731884E-09
  1 86 9.55533500E-09
  1 87 9.71156331E-09
  1 88 9.86066883E-09
  1 89 9.94215046E-09
  1 90 1.01002502E-08
  1 91 1.02603515E-08
  1 92 1.07437372E-08
  1 93 1.11887465E-08
  1 94 1.14619468E-08
  1 95 1.16269527E-08
  1 96 1.19629230E-08
  1 97 1.25334655E-08
  1 98 1.23515853E-08
  1 99 1.25137227E-08
  1 100 1.24336814E-08
  1 101 1.17369286E-08
  1 102 1.24413644E-08
  1 103 1.27748389E-08
  1 104 1.30883117E-08
  1 105 1.35504728E-08
  1 106 1.36454891E-08
  1 107 1.36114736E-08
  1 108 1.37377860E-08
  1 109 1.38916785E-08
  1 110 1.39431530E-08
  1 111 1.41271805E-08
  1 112 1.42408166E-08
  1 113 1.41476836E-08
  1 114 1.47089966E-08
  1 115 1.46876162E-08
  1 116 1.46860087E-08
  1 117 1.49816053E-08
  1 118 1.48450694E-08
  1 119 1.51887400E-08
  1 120 1.51154985E-08
  1 121 1.50605516E-08
  1 122 1.52450319E-08
  1 123 1.54198722E-08
  1 124 1.52415282E-08
  1 125 1.55777254E-08
  1 126 1.55790095E-08
  1 127 1.55335109E-08
  1 128 1.60330742E-08
  1 129 1.64584748E-08
  1 130 1.63035681E-08
  1 131 1.64424379E-08
  1 132 1.65595091E-08
  1 133 1.66533498E-08
  1 134 1.70603510E-08
  1 135 1.71116715E-08
  1 136 1.72433143E-08
  1 137 1.74738019E-08
  1 138 1.74273984E-08
  1 139 1.72894425E-08
  1 140 1.77945005E-08
  1 141 1.80218378E-08
  1 142 1.79686152E-08
  1 143 1.79563555E-08
  1 144 1.82542503E-08
  1 145 1.81189469E-08
  1 146 1.80099999E-08
  1 147 1.75623024E-08
  1 148 1.74601882E-08
  1 149 1.73200677E-08
  1 150 1.72888506E-08
  1 151 1.71547094E-08
  1 152 1.69828961E-08
  1 153 1.67498340E-08
  1 154 1.66807100E-08
  1 155 1.65514159E-08
  1 156 1.63789367E-08
  1 157 1.60912224E-08
  1 158 1.56305363E-08
  1 159 1.51758703E-08
  1 160 1.49188863E-08
  1 161 1.46213092E-08
  1 162 1.44064426E-08
  1 163 1.39587770E-08
  1 164 1.34258186E-08
  1 165 1.31938468E-08
  1 166 1.26869360E-08
  1 167 1.21584378E-08
  1 168 1.17123509E-08
  1 169 1.15503368E-08
  1 170 1.13087888E-08
  1 171 1.11797439E-08
  1 172 1.10014052E-08
  1 173 1.07260273E-08
  1 174 1.07360070E-08
  1 175 1.08521774E-08
  1 176 1.04263372E-08
  1 177 1.04557574E-08
  1 178 1.00988420E-08
  1 179 1.00619525E-08
  1 180 9.91276270E-09
  1 181 1.00619153E-08
  1 182 9.68378612E-09
  1 183 9.54830534E-09
  1 184 9.46737052E-09
  1 185 9.92466647E-09
  1 186 1.02372659E-08
  1 187 1.07059708E-08
  1 188 1.10638633E-08
  1 189 1.12023189E-08
  1 190 1.15262266E-08
  1 191 1.16484471E-08
  1 192 1.19877151E-08
  1 193 1.22705644E-08
  1 194 1.24347937E-08
  1 195 1.24813142E-08
  1 196 1.27572852E-08
  1 197 1.33858825E-08
  1 198 1.31618262E-08
  1 199 1.31733033E-08
  1 200 1.29633841E-08
  1 201 1.25575691E-08
  1 202 1.30651618E-08
  1 203 1.31136045E-08
  1 204 1.31547347E-08
  1 205 1.34707410E-08
  1 206 1.36479246E-08
  1 207 1.36774848E-08
  1 208 1.38211381E-08
  1 209 1.39980048E-08
  1 210 1.40812221E-08
  1 211 1.42432049E-08
  1 212 1.42404632E-08
  1 213 1.41968279E-08
  1 214 1.48945875E-08
  1 215 1.49834379E-08
  1 216 1.50536267E-08
  1 217 1.54071957E-08
  1 218 1.52519160E-08
  1 219 1.56459651E-08
  1 220 1.57170148E-08
  1 221 1.56871628E-08
  1 222 1.58541082E-08
  1 223 1.59647917E-08
  1 224 1.59146287E-08
  1 225 1.64704761E-08
  1 226 1.65937950E-08
  1 227 1.65111707E-08
  1 228 1.69462471E-08
  1 229 1.73543568E-08
  1 230 1.72132789E-08
  1 231 1.72974377E-08
  1 232 1.74104549E-08
  1 233 1.76369442E-08
  1 234 1.80013112E-08
  1 235 1.78336165E-08
  1 236 1.78519547E-08
  1 237 1.80417330E-08
  1 238 1.79162850E-08
  1 239 1.78367768E-08
  1 240 1.84447101E-08
  1 241 1.87592788E-08
  1 242 1.86484460E-08
  1 243 1.84739093E-08
  1 244 1.85365468E-08
  1 245 1.82911362E-08
  1 246 1.82211766E-08
  1 247 1.77183398E-08
  1 248 1.75045115E-08
  1 249 1.72635756E-08
  1 250 1.71988901E-08
  1 251 1.71086798E-08
  1 252 1.70090511E-08
  1 253 1.66332123E-08
  1 254 1.63286123E-08
  1 255 1.61908262E-08
  1 256 1.60335098E-08
  1 257 1.57978443E-08
  1 258 1.54269204E-08
  1 259 1.48947590E-08
  1 260 1.44110455E-08
  1 261 1.39992546E-08
  1 262 1.37653181E-08
  1 263 1.34211797E-08
  1 264 1.28787881E-08
  1 265 1.27177244E-08
  1 266 1.23139233E-08
  1 267 1.19292071E-08
  1 268 1.16144936E-08
  1 269 1.14990396E-08
  1 270 1.13528071E-08
  1 271 1.12608431E-08
  1 272 1.11019335E-08
  1 273 1.08177387E-08
  1 274 1.07569496E-08
  1 275 1.08432221E-08
  1 276 1.04780851E-08
  1 277 1.04778243E-08
  1 278 9.96896886E-09
  1 279 9.86358466E-09
  1 280 9.93561248E-09
  1 281 1.03095288E-08
  1 282 1.01427151E-08
  1 283 1.01714942E-08
  1 284 1.03236791E-08
  1 285 1.10995157E-08
  1 286 1.15814908E-08
  1 287 1.19835024E-08
  1 288 1.21236825E-08
  1 289 1.21359630E-08
  1 290 1.22747563E-08
  1 291 1.22052312E-08
  1 292 1.25485669E-08
  1 293 1.28417697E-08
  1 294 1.30508494E-08
  1 295 1.30816736E-08
  1 296 1.31908228E-08
  1 297 1.37180656E-08
  1 298 1.33193383E-08
  1 299 1.32151683E-08
  1 300 1.30469133E-08
  1 301 1.25776717E-08
  1 302 1.29711045E-08
  1 303 1.31040567E-08
  1 304 1.32556708E-08
  1 305 1.36454653E-08
  1 306 1.39338424E-08
  1 307 1.40388342E-08
  1 308 1.42401605E-08
  1 309 1.44239985E-08
  1 310 1.44780738E-08
  1 311 1.47462324E-08
  1 312 1.48513459E-08
  1 313 1.48371209E-08
  1 314 1.55677649E-08
  1 315 1.57827366E-08
  1 316 1.59542529E-08
  1 317 1.61664233E-08
  1 318 1.59429353E-08
  1 319 1.61357978E-08
  1 320 1.61395711E-08
  1 321 1.62448691E-08
  1 322 1.65593504E-08
  1 323 1.69513756E-08
  1 324 1.69323067E-08
  1 325 1.73457288E-08
  1 326 1.73265352E-08
  1 327 1.72092189E-08
  1 328 1.75653511E-08
  1 329 1.78588755E-08
  1 330 1.76799478E-08
  1 331 1.78405115E-08
  1 332 1.79565215E-08
  1 333 1.80376436E-08
  1 334 1.83866803E-08
  1 335 1.80962064E-08
  1 336 1.81077854E-08
  1 337 1.84698920E-08
  1 338 1.84008098E-08
  1 339 1.83010866E-08
  1 340 1.87395393E-08
  1 341 1.89960203E-08
  1 342 1.88240193E-08
  1 343 1.86357619E-08
  1 344 1.86746738E-08
  1 345 1.82840695E-08
  1 346 1.79537812E-08
  1 347 1.73145095E-08
  1 348 1.71319636E-08
  1 349 1.69660538E-08
  1 350 1.70377426E-08
  1 351 1.69860570E-08
  1 352 1.68089243E-08
  1 353 1.65245366E-08
  1 354 1.62418227E-08
  1 355 1.60736063E-08
  1 356 1.58049345E-08
  1 357 1.54048961E-08
  1 358 1.48546687E-08
  1 359 1.43245199E-08
  1 360 1.39468229E-08
  1 361 1.35778895E-08
  1 362 1.33716207E-08
  1 363 1.30888156E-08
  1 364 1.26623284E-08
  1 365 1.25081719E-08
  1 366 1.20863157E-08
  1 367 1.17594450E-08
  1 368 1.15333230E-08
  1 369 1.14971787E-08
  1 370 1.13054592E-08
  1 371 1.11870921E-08
  1 372 1.09568351E-08
  1 373 1.08291936E-08
  1 374 1.08375332E-08
  1 375 1.09559692E-08
  1 376 1.06069618E-08
  1 377 1.06056781E-08
  1 378 1.03111232E-08
  1 379 1.04983431E-08
  1 380 1.06470142E-08
  1 381 1.11468065E-08
  1 382 1.10804655E-08
  1 383 1.13458045E-08
  1 384 1.15666107E-08
  1 385 1.20722983E-08
  1 386 1.23305939E-08
  1 387 1.26378742E-08
  1 388 1.27484037E-08
  1 389 1.26611049E-08
  1 390 1.27548351E-08
  1 391 1.28190058E-08
  1 392 1.31962007E-08
  1 393 1.34553271E-08
  1 394 1.36622199E-08
  1 395 1.36331202E-08
  1 396 1.35772847E-08
  1 397 1.38363518E-08
  1 398 1.34960504E-08
  1 399 1.36159255E-08
  1 400 1.37428445E-08
  1 401 1.28535583E-08
  1 402 1.33567028E-08
  1 403 1.35410021E-08
  1 404 1.39006657E-08
  1 405 1.42987363E-08
  1 406 1.44851971E-08
  1 407 1.45700432E-08
  1 408 1.48378112E-08
  1 409 1.51954940E-08
  1 410 1.52116469E-08
  1 411 1.54546573E-08
  1 412 1.56770873E-08
  1 413 1.57049236E-08
  1 414 1.63102495E-08
  1 415 1.63133302E-08
  1 416 1.62572964E-08
  1 417 1.64493382E-08
  1 418 1.63684558E-08
  1 419 1.67957175E-08
  1 420 1.71109338E-08
  1 421 1.72793711E-08
  1 422 1.73840930E-08
  1 423 1.74597133E-08
  1 424 1.73164435E-08
  1 425 1.77426248E-08
  1 426 1.77332997E-08
  1 427 1.75427571E-08
  1 428 1.79178767E-08
  1 429 1.83818970E-08
  1 430 1.82466619E-08
  1 431 1.83338956E-08
  1 432 1.83506739E-08
  1 433 1.84043568E-08
  1 434 1.87245617E-08
  1 435 1.85382263E-08
  1 436 1.84619505E-08
  1 437 1.87373635E-08
  1 438 1.86882323E-08
  1 439 1.85745489E-08
  1 440 1.90603405E-08
  1 441 1.91319727E-08
  1 442 1.87798125E-08
  1 443 1.83615956E-08
  1 444 1.81714856E-08
  1 445 1.77004870E-08
  1 446 1.75240105E-08
  1 447 1.71110096E-08
  1 448 1.70543071E-08
  1 449 1.69735765E-08
  1 450 1.69661331E-08
  1 451 1.68010298E-08
  1 452 1.65579064E-08
  1 453 1.60951321E-08
  1 454 1.58069998E-08
  1 455 1.56118599E-08
  1 456 1.52866024E-08
  1 457 1.49256621E-08
  1 458 1.44740903E-08
  1 459 1.38332082E-08
  1 460 1.34792446E-08
  1 461 1.32402522E-08
  1 462 1.30354135E-08
  1 463 1.26934888E-08
  1 464 1.22821940E-08
  1 465 1.22424400E-08
  1 466 1.19944279E-08
  1 467 1.17158258E-08
  1 468 1.14203685E-08
  1 469 1.13353050E-08
  1 470 1.11304349E-08
  1 471 1.11436800E-08
  1 472 1.11504810E-08
  1 473 1.09943423E-08
  1 474 1.09377988E-08
  1 475 1.10612772E-08
  1 476 1.09216849E-08
  1 477 1.13051699E-08
  1 478 1.11821330E-08
  1 479 1.14123407E-08
  1 480 1.16146772E-08
  1 481 1.20374130E-08
  1 482 1.19477763E-08
  1 483 1.20598271E-08
  1 484 1.21972348E-08
  1 485 1.27272491E-08
  1 486 1.29516596E-08
  1 487 1.31711833E-08
  1 488 1.32159406E-08
  1 489 1.32017199E-08
  1 490 1.35248019E-08
  1 491 1.36885409E-08
  1 492 1.41258546E-08
  1 493 1.42939645E-08
  1 494 1.43337814E-08
  1 495 1.40829420E-08
  1 496 1.39426520E-08
  1 497 1.44895982E-08
  1 498 1.43734172E-08
  1 499 1.44815191E-08
  1 500 1.44331427E-08
  1 501 1.36293271E-08
  1 502 1.40643203E-08
  1 503 1.42364569E-08
  1 504 1.45258350E-08
  1 505 1.50386031E-08
  1 506 1.53558046E-08
  1 507 1.53466789E-08
  1 508 1.55249049E-08
  1 509 1.58175544E-08
  1 510 1.59849666E-08
  1 511 1.61133380E-08
  1 512 1.60085668E-08
  1 513 1.59718291E-08
  1 514 1.66041223E-08
  1 515 1.68476655E-08
  1 516 1.68765987E-08
  1 517 1.72722478E-08
  1 518 1.72702485E-08
  1 519 1.75452623E-08
  1 520 1.74717697E-08
  1 521 1.74578332E-08
  1 522 1.77004766E-08
  1 523 1.78853591E-08
  1 524 1.77230888E-08
  1 525 1.81306272E-08
  1 526 1.81597113E-08
  1 527 1.81296941E-08
  1 528 1.85966917E-08
  1 529 1.89826607E-08
  1 530 1.87304007E-08
  1 531 1.86366831E-08
  1 532 1.85466934E-08
  1 533 1.85233497E-08
  1 534 1.88274239E-08
  1 535 1.86090349E-08
  1 536 1.86377056E-08
  1 537 1.89579929E-08
  1 538 1.88311514E-08
  1 539 1.86117857E-08
  1 540 1.87566081E-08
  1 541 1.86053749E-08
  1 542 1.81805414E-08
  1 543 1.78167619E-08
  1 544 1.77973113E-08
  1 545 1.74660989E-08
  1 546 1.73626000E-08
  1 547 1.68167508E-08
  1 548 1.65949281E-08
  1 549 1.64517772E-08
  1 550 1.63816170E-08
  1 551 1.61990792E-08
  1 552 1.59231408E-08
  1 553 1.54925389E-08
  1 554 1.51423240E-08
  1 555 1.49595443E-08
  1 556 1.47171669E-08
  1 557 1.44333174E-08
  1 558 1.40693317E-08
  1 559 1.35193665E-08
  1 560 1.30918520E-08
  1 561 1.28091051E-08
  1 562 1.26736753E-08
  1 563 1.24656231E-08
  1 564 1.21714253E-08
  1 565 1.21790326E-08
  1 566 1.18694312E-08
  1 567 1.15895723E-08
  1 568 1.13316496E-08
  1 569 1.13402467E-08
  1 570 1.12436012E-08
  1 571 1.12417223E-08
  1 572 1.11870214E-08
  1 573 1.12057623E-08
  1 574 1.15090920E-08
  1 575 1.18627441E-08
  1 576 1.17600626E-08
  1 577 1.20933700E-08
  1 578 1.18300211E-08
  1 579 1.18449341E-08
  1 580 1.20336538E-08
  1 581 1.25997002E-08
  1 582 1.26281326E-08
  1 583 1.27127531E-08
  1 584 1.27275022E-08
  1 585 1.31829939E-08
  1 586 1.34165956E-08
  1 587 1.37971583E-08
  1 588 1.41250229E-08
  1 589 1.42851137E-08
  1 590 1.45248689E-08
  1 591 1.46133818E-08
  1 592 1.49145392E-08
  1 593 1.48746804E-08
  1 594 1.48676580E-08
  1 595 1.47891654E-08
  1 596 1.49148860E-08
  1 597 1.54224044E-08
  1 598 1.51219958E-08
  1 599 1.50898780E-08
  1 600 1.49574607E-08
  1 601 1.43451075E-08
  1 602 1.48541672E-08
  1 603 1.49787303E-08
  1 604 1.51881905E-08
  1 605 1.54981929E-08
  1 606 1.58263090E-08
  1 607 1.58817431E-08
  1 608 1.60607862E-08
  1 609 1.63152182E-08
  1 610 1.63708474E-08
  1 611 1.65778912E-08
  1 612 1.67498395E-08
  1 613 1.67447612E-08
  1 614 1.73873266E-08
  1 615 1.74649593E-08
  1 616 1.75954756E-08
  1 617 1.79920879E-08
  1 618 1.77868422E-08
  1 619 1.78743476E-08
  1 620 1.79906764E-08
  1 621 1.80950511E-08
  1 622 1.82015200E-08
  1 623 1.84453836E-08
  1 624 1.83674656E-08
  1 625 1.89145369E-08
  1 626 1.90138472E-08
  1 627 1.87950448E-08
  1 628 1.89318027E-08
  1 629 1.89138090E-08
  1 630 1.85178313E-08
  1 631 1.85098986E-08
  1 632 1.85830842E-08
  1 633 1.86392763E-08
  1 634 1.89397455E-08
  1 635 1.88186644E-08
  1 636 1.87406577E-08
  1 637 1.87983931E-08
  1 638 1.83994761E-08
  1 639 1.80137506E-08
  1 640 1.82110752E-08
  1 641 1.82246197E-08
  1 642 1.79411994E-08
  1 643 1.75491861E-08
  1 644 1.73234713E-08
  1 645 1.68545625E-08
  1 646 1.67040952E-08
  1 647 1.62570417E-08
  1 648 1.61132149E-08
  1 649 1.59285465E-08
  1 650 1.58050533E-08
  1 651 1.55422672E-08
  1 652 1.52549093E-08
  1 653 1.49882331E-08
  1 654 1.47168829E-08
  1 655 1.46087350E-08
  1 656 1.43830517E-08
  1 657 1.39771089E-08
  1 658 1.35756489E-08
  1 659 1.30676307E-08
  1 660 1.26967258E-08
  1 661 1.24636183E-08
  1 662 1.23113867E-08
  1 663 1.21013694E-08
  1 664 1.18465496E-08
  1 665 1.18900936E-08
  1 666 1.16254098E-08
  1 667 1.13269915E-08
  1 668 1.11840671E-08
  1 669 1.14641919E-08
  1 670 1.15380956E-08
  1 671 1.17017071E-08
  1 672 1.17470400E-08
  1 673 1.17393378E-08
  1 674 1.19445900E-08
  1 675 1.23273335E-08
  1 676 1.22459376E-08
  1 677 1.24656113E-08
  1 678 1.22332889E-08
  1 679 1.23925111E-08
  1 680 1.26907646E-08
  1 681 1.32757086E-08
  1 682 1.32154207E-08
  1 683 1.32487884E-08
  1 684 1.33383014E-08
  1 685 1.39244548E-08
  1 686 1.42441791E-08
  1 687 1.46659293E-08
  1 688 1.49563653E-08
  1 689 1.50206026E-08
  1 690 1.51045261E-08
  1 691 1.49149856E-08
  1 692 1.51738853E-08
  1 693 1.53408379E-08
  1 694 1.55464484E-08
  1 695 1.54110451E-08
  1 696 1.53471678E-08
  1 697 1.57447728E-08
  1 698 1.53487934E-08
  1 699 1.52626887E-08
  1 700 1.50679382E-08
  1 701 1.48651948E-08
  1 702 1.52284309E-08
  1 703 1.53863035E-08
  1 704 1.56135252E-08
  1 705 1.60477752E-08
  1 706 1.63469110E-08
  1 707 1.62833230E-08
  1 708 1.63855577E-08
  1 709 1.68820252E-08
  1 710 1.70453341E-08
  1 711 1.72335256E-08
  1 712 1.73960016E-08
  1 713 1.74448119E-08
  1 714 1.82343707E-08
  1 715 1.84119390E-08
  1 716 1.84545648E-08
  1 717 1.86385396E-08
  1 718 1.84271418E-08
  1 719 1.85493562E-08
  1 720 1.85672320E-08
  1 721 1.87059167E-08
  1 722 1.89040204E-08
  1 723 1.91378579E-08
  1 724 1.90452184E-08
  1 725 1.93915642E-08
  1 726 1.90849892E-08
  1 727 1.86191426E-08
  1 728 1.87034749E-08
  1 729 1.88603536E-08
  1 730 1.85654807E-08
  1 731 1.85358740E-08
  1 732 1.85799412E-08
  1 733 1.86398550E-08
  1 734 1.89160773E-08
  1 735 1.85190369E-08
  1 736 1.81929084E-08
  1 737 1.81531648E-08
  1 738 1.79377728E-08
  1 739 1.77066235E-08
  1 740 1.78974188E-08
  1 741 1.77064876E-08
  1 742 1.72890539E-08
  1 743 1.70130005E-08
  1 744 1.69488779E-08
  1 745 1.65761138E-08
  1 746 1.65006689E-08
  1 747 1.59902647E-08
  1 748 1.56425116E-08
  1 749 1.53354735E-08
  1 750 1.52425251E-08
  1 751 1.51438693E-08
  1 752 1.49911289E-08
  1 753 1.46961000E-08
  1 754 1.44409632E-08
  1 755 1.41992193E-08
  1 756 1.38299910E-08
  1 757 1.35731407E-08
  1 758 1.31704847E-08
  1 759 1.26182340E-08
  1 760 1.21941164E-08
  1 761 1.20598702E-08
  1 762 1.19971843E-08
  1 763 1.17590763E-08
  1 764 1.15207616E-08
  1 765 1.15859620E-08
  1 766 1.15751316E-08
  1 767 1.15672919E-08
  1 768 1.15642846E-08
  1 769 1.17467967E-08
  1 770 1.17614666E-08
  1 771 1.18759168E-08
  1 772 1.20312835E-08
  1 773 1.21904953E-08
  1 774 1.24585996E-08
  1 775 1.26866802E-08
  1 776 1.25781573E-08
  1 777 1.29264557E-08
  1 778 1.29068317E-08
  1 779 1.31409381E-08
  1 780 1.34863188E-08
  1 781 1.39302837E-08
  1 782 1.38294256E-08
  1 783 1.39757728E-08
  1 784 1.41537107E-08
  1 785 1.47543715E-08
  1 786 1.50818243E-08
  1 787 1.53965056E-08
  1 788 1.54665151E-08
  1 789 1.52217749E-08
  1 790 1.52378058E-08
  1 791 1.51379365E-08
  1 792 1.54744911E-08
  1 793 1.55323612E-08
  1 794 1.56361493E-08
  1 795 1.53261525E-08
  1 796 1.51758549E-08
  1 797 1.55561499E-08
  1 798 1.51320670E-08
  1 799 1.49527297E-08
  1 800 1.47301980E-08
  1 801 1.50333075E-08
  1 802 1.55558657E-08
  1 803 1.58444984E-08
  1 804 1.61392000E-08
  1 805 1.64712048E-08
  1 806 1.66909785E-08
  1 807 1.67097457E-08
  1 808 1.68661149E-08
  1 809 1.73659568E-08
  1 810 1.76607285E-08
  1 811 1.80210342E-08
  1 812 1.83268662E-08
  1 813 1.85278433E-08
  1 814 1.92093681E-08
  1 815 1.93086567E-08
  1 816 1.91803401E-08
  1 817 1.94044150E-08
  1 818 1.91989630E-08
  1 819 1.93485800E-08
  1 820 1.93076334E-08
  1 821 1.93327591E-08
  1 822 1.92842903E-08
  1 823 1.93030266E-08
  1 824 1.89191187E-08
  1 825 1.91444956E-08
  1 826 1.88600871E-08
  1 827 1.85451126E-08
  1 828 1.86282781E-08
  1 829 1.87368389E-08
  1 830 1.84775175E-08
  1 831 1.84546302E-08
  1 832 1.83914953E-08
  1 833 1.82454013E-08
  1 834 1.83400159E-08
  1 835 1.78936678E-08
  1 836 1.76681103E-08
  1 837 1.77657918E-08
  1 838 1.74377829E-08
  1 839 1.71572572E-08
  1 840 1.73841539E-08
  1 841 1.73712474E-08
  1 842 1.70434698E-08
  1 843 1.67569047E-08
  1 844 1.67517836E-08
  1 845 1.62553740E-08
  1 846 1.58400282E-08
  1 847 1.52010820E-08
  1 848 1.49964643E-08
  1 849 1.48869184E-08
  1 850 1.48495287E-08
  1 851 1.47547965E-08
  1 852 1.46100406E-08
  1 853 1.42786482E-08
  1 854 1.39850345E-08
  1 855 1.37905889E-08
  1 856 1.34836191E-08
  1 857 1.31136754E-08
  1 858 1.26881957E-08
  1 859 1.21009822E-08
  1 860 1.17016693E-08
  1 861 1.15299119E-08
  1 862 1.14996830E-08
  1 863 1.15214908E-08
  1 864 1.15119826E-08
  1 865 1.17820736E-08
  1 866 1.16765993E-08
  1 867 1.15545305E-08
  1 868 1.15868757E-08
  1 869 1.19261849E-08
  1 870 1.20767364E-08
  1 871 1.21834062E-08
  1 872 1.23054742E-08
  1 873 1.23776227E-08
  1 874 1.27100527E-08
  1 875 1.31991287E-08
  1 876 1.33380269E-08
  1 877 1.36859371E-08
  1 878 1.34685240E-08
  1 879 1.35894209E-08
  1 880 1.38862109E-08
  1 881 1.43676389E-08
  1 882 1.44506969E-08
  1 883 1.46077024E-08
  1 884 1.47164180E-08
  1 885 1.52405817E-08
  1 886 1.54641802E-08
  1 887 1.55806599E-08
  1 888 1.55558542E-08
  1 889 1.54245344E-08
  1 890 1.54625532E-08
  1 891 1.53780473E-08
  1 892 1.55369898E-08
  1 893 1.53623000E-08
  1 894 1.53394961E-08
  1 895 1.51260471E-08
  1 896 1.51093407E-08
  1 897 1.54417233E-08
  1 898 1.50469079E-08
  1 899 1.49658504E-08
  1 900 1.47566811E-08
  1 901 1.55898500E-08
  1 902 1.60651567E-08
  1 903 1.61233217E-08
  1 904 1.63871420E-08
  1 905 1.68235832E-08
  1 906 1.72440351E-08
  1 907 1.73655368E-08
  1 908 1.76256203E-08
  1 909 1.82862976E-08
  1 910 1.86944538E-08
  1 911 1.91517272E-08
  1 912 1.93440931E-08
  1 913 1.93998035E-08
  1 914 1.99538244E-08
  1 915 1.99085283E-08
  1 916 1.98694386E-08
  1 917 2.00869191E-08
  1 918 1.98312028E-08
  1 919 1.98413003E-08
  1 920 1.96165602E-08
  1 921 1.93243310E-08
  1 922 1.91467896E-08
  1 923 1.90942223E-08
  1 924 1.86030486E-08
  1 925 1.87222629E-08
  1 926 1.84386504E-08
  1 927 1.81970168E-08
  1 928 1.84002276E-08
  1 929 1.85848868E-08
  1 930 1.82085839E-08
  1 931 1.80077091E-08
  1 932 1.78740561E-08
  1 933 1.76132368E-08
  1 934 1.76837585E-08
  1 935 1.73893005E-08
  1 936 1.72181086E-08
  1 937 1.73289070E-08
  1 938 1.71331460E-08
  1 939 1.68729323E-08
  1 940 1.70377064E-08
  1 941 1.69196514E-08
  1 942 1.64752645E-08
  1 943 1.61056932E-08
  1 944 1.58426034E-08
  1 945 1.52726124E-08
  1 946 1.50865401E-08
  1 947 1.45619797E-08
  1 948 1.44228299E-08
  1 949 1.42259890E-08
  1 950 1.41691394E-08
  1 951 1.41044070E-08
  1 952 1.40395948E-08
  1 953 1.36582075E-08
  1 954 1.33611947E-08
  1 955 1.32225790E-08
  1 956 1.27836614E-08
  1 957 1.23682510E-08
  1 958 1.19131807E-08
  1 959 1.15211375E-08
  1 960 1.12720228E-08
  1 961 1.14228881E-08
  1 962 1.16615579E-08
  1 963 1.16942877E-08
  1 964 1.15411256E-08
  1 965 1.18018459E-08
  1 966 1.18510071E-08
  1 967 1.19034317E-08
  1 968 1.19769046E-08
  1 969 1.22672884E-08
  1 970 1.23084768E-08
  1 971 1.24072075E-08
  1 972 1.27970700E-08
  1 973 1.31443117E-08
  1 974 1.35105685E-08
  1 975 1.38432247E-08
  1 976 1.38134863E-08
  1 977 1.41633420E-08
  1 978 1.39849474E-08
  1 979 1.40518742E-08
  1 980 1.43652265E-08
  1 981 1.49254431E-08
  1 982 1.48838225E-08
  1 983 1.49980169E-08
  1 984 1.50499136E-08
  1 985 1.53390982E-08
  1 986 1.54836820E-08
  1 987 1.57361778E-08
  1 988 1.57455547E-08
  1 989 1.54697427E-08
  1 990 1.53980870E-08
  1 991 1.52339530E-08
  1 992 1.53864399E-08
  1 993 1.53072677E-08
  1 994 1.54024598E-08
  1 995 1.51593318E-08
  1 996 1.51209409E-08
  1 997 1.54473383E-08
  1 998 1.49208877E-08
  1 999 1.49071780E-08
  1 1000 1.48645301E-08
  1 1001 1.57651901E-08
  1 1002 1.62378009E-08
  1 1003 1.64990862E-08
  1 1004 1.68618106E-08
  1 1005 1.74532924E-08
  1 1006 1.80456191E-08
  1 1007 1.83549024E-08
  1 1008 1.87190266E-08
  1 1009 1.94174961E-08
  1 1010 1.97150806E-08
  1 1011 1.99482862E-08
  1 1012 1.99309473E-08
  1 1013 1.98456418E-08
  1 1014 2.04754562E-08
  1 1015 2.03667054E-08
  1 1016 2.01416448E-08
  1 1017 2.00856956E-08
  1 1018 1.96100173E-08
  1 1019 1.95014310E-08
  1 1020 1.91845478E-08
  1 1021 1.88208571E-08
  1 1022 1.85384177E-08
  1 1023 1.84610583E-08
  1 1024 1.80734525E-08
  1 1025 1.83972685E-08
  1 1026 1.83312361E-08
  1 1027 1.80769859E-08
  1 1028 1.80976791E-08
  1 1029 1.81042142E-08
  1 1030 1.76113689E-08
  1 1031 1.72839603E-08
  1 1032 1.71285304E-08
  1 1033 1.69314384E-08
  1 1034 1.70882026E-08
  1 1035 1.67728797E-08
  1 1036 1.66154936E-08
  1 1037 1.66746973E-08
  1 1038 1.62970307E-08
  1 1039 1.57507610E-08
  1 1040 1.57775716E-08
  1 1041 1.56373913E-08
  1 1042 1.52365910E-08
  1 1043 1.48562308E-08
  1 1044 1.46548115E-08
  1 1045 1.42528118E-08
  1 1046 1.40907778E-08
  1 1047 1.35693468E-08
  1 1048 1.34102368E-08
  1 1049 1.34006135E-08
  1 1050 1.34982162E-08
  1 1051 1.34067356E-08
  1 1052 1.32093429E-08
  1 1053 1.28019433E-08
  1 1054 1.25199468E-08
  1 1055 1.23949811E-08
  1 1056 1.21441757E-08
  1 1057 1.19460740E-08
  1 1058 1.18178918E-08
  1 1059 1.15400402E-08
  1 1060 1.13806266E-08
  1 1061 1.14586072E-08
  1 1062 1.15219026E-08
  1 1063 1.16378027E-08
  1 1064 1.16977461E-08
  1 1065 1.21483910E-08
  1 1066 1.22402979E-08
  1 1067 1.22383274E-08
  1 1068 1.24379991E-08
  1 1069 1.28584179E-08
  1 1070 1.29547082E-08
  1 1071 1.31052983E-08
  1 1072 1.34009651E-08
  1 1073 1.36710748E-08
  1 1074 1.39028339E-08
  1 1075 1.42533748E-08
  1 1076 1.42669448E-08
  1 1077 1.45625811E-08
  1 1078 1.43783737E-08
  1 1079 1.44916232E-08
  1 1080 1.48122545E-08
  1 1081 1.53076098E-08
  1 1082 1.52450045E-08
  1 1083 1.51061422E-08
  1 1084 1.51149836E-08
  1 1085 1.54158376E-08
  1 1086 1.55421538E-08
  1 1087 1.57029700E-08
  1 1088 1.57516546E-08
  1 1089 1.54345723E-08
  1 1090 1.53403734E-08
  1 1091 1.51147270E-08
  1 1092 1.52711635E-08
  1 1093 1.51611242E-08
  1 1094 1.51646361E-08
  1 1095 1.49027914E-08
  1 1096 1.48737941E-08
  1 1097 1.52459904E-08
  1 1098 1.48752585E-08
  1 1099 1.48697155E-08
  1 1100 1.47601917E-08
  1 1101 1.60512135E-08
  1 1102 1.66286654E-08
  1 1103 1.70222179E-08
  1 1104 1.76611385E-08
  1 1105 1.83430273E-08
  1 1106 1.90246832E-08
  1 1107 1.92751025E-08
  1 1108 1.94699557E-08
  1 1109 2.00068214E-08
  1 1110 2.01564317E-08
  1 1111 2.02116820E-08
  1 1112 2.01302922E-08
  1 1113 1.98350506E-08
  1 1114 2.01676023E-08
  1 1115 1.99175671E-08
  1 1116 1.95390446E-08
  1 1117 1.94450773E-08
  1 1118 1.89265631E-08
  1 1119 1.87694762E-08
  1 1120 1.84285585E-08
  1 1121 1.81025138E-08
  1 1122 1.79828582E-08
  1 1123 1.80567808E-08
  1 1124 1.78248069E-08
  1 1125 1.80535010E-08
  1 1126 1.77827855E-08
  1 1127 1.74356236E-08
  1 1128 1.73597663E-08
  1 1129 1.71412389E-08
  1 1130 1.66720922E-08
  1 1131 1.63402329E-08
  1 1132 1.61697660E-08
  1 1133 1.59771777E-08
  1 1134 1.60751963E-08
  1 1135 1.56619463E-08
  1 1136 1.53778848E-08
  1 1137 1.52226275E-08
  1 1138 1.47056547E-08
  1 1139 1.43473157E-08
  1 1140 1.44559949E-08
  1 1141 1.42565541E-08
  1 1142 1.37258700E-08
  1 1143 1.34644492E-08
  1 1144 1.33603250E-08
  1 1145 1.28956792E-08
  1 1146 1.28132151E-08
  1 1147 1.25790079E-08
  1 1148 1.26020952E-08
  1 1149 1.25480669E-08
  1 1150 1.25302112E-08
  1 1151 1.24455720E-08
  1 1152 1.24117185E-08
  1 1153 1.21145521E-08
  1 1154 1.20045936E-08
  1 1155 1.19980531E-08
  1 1156 1.18703797E-08
  1 1157 1.18285662E-08
  1 1158 1.17718111E-08
  1 1159 1.14196307E-08
  1 1160 1.12720882E-08
  1 1161 1.15940942E-08
  1 1162 1.19447077E-08
  1 1163 1.21845166E-08
  1 1164 1.22590844E-08
  1 1165 1.26964208E-08
  1 1166 1.28050053E-08
  1 1167 1.28118205E-08
  1 1168 1.28865138E-08
  1 1169 1.33353048E-08
  1 1170 1.34246901E-08
  1 1171 1.35866482E-08
  1 1172 1.38564773E-08
  1 1173 1.40669404E-08
  1 1174 1.43123176E-08
  1 1175 1.45885918E-08
  1 1176 1.45379264E-08
  1 1177 1.48618794E-08
  1 1178 1.47404410E-08
  1 1179 1.49000321E-08
  1 1180 1.52808031E-08
  1 1181 1.56330311E-08
  1 1182 1.55230917E-08
  1 1183 1.54446512E-08
  1 1184 1.53057639E-08
  1 1185 1.55912064E-08
  1 1186 1.57756284E-08
  1 1187 1.58006196E-08
  1 1188 1.55474571E-08
  1 1189 1.51419633E-08
  1 1190 1.51164013E-08
  1 1191 1.50158831E-08
  1 1192 1.50863215E-08
  1 1193 1.48477593E-08
  1 1194 1.48115190E-08
  1 1195 1.45493073E-08
  1 1196 1.45800879E-08
  1 1197 1.48423312E-08
  1 1198 1.42502400E-08
  1 1199 1.40518545E-08
  1 1200 1.38079397E-08
  1 1201 1.65981959E-08
  1 1202 1.73582336E-08
  1 1203 1.78640095E-08
  1 1204 1.84000733E-08
  1 1205 1.90041826E-08
  1 1206 1.95925548E-08
  1 1207 1.96655727E-08
  1 1208 1.97358378E-08
  1 1209 2.01644886E-08
  1 1210 2.00746200E-08
  1 1211 1.98900544E-08
  1 1212 1.96586153E-08
  1 1213 1.93469766E-08
  1 1214 1.94832616E-08
  1 1215 1.90143175E-08
  1 1216 1.85278325E-08
  1 1217 1.84278636E-08
  1 1218 1.78814985E-08
  1 1219 1.76807433E-08
  1 1220 1.74248706E-08
  1 1221 1.72990814E-08
  1 1222 1.72372615E-08
  1 1223 1.72635114E-08
  1 1224 1.68857646E-08
  1 1225 1.71302988E-08
  1 1226 1.66119746E-08
  1 1227 1.60252669E-08
  1 1228 1.58542294E-08
  1 1229 1.57314113E-08
  1 1230 1.52313937E-08
  1 1231 1.49857070E-08
  1 1232 1.48477537E-08
  1 1233 1.46273423E-08
  1 1234 1.46089253E-08
  1 1235 1.40577187E-08
  1 1236 1.37320620E-08
  1 1237 1.36872551E-08
  1 1238 1.33406728E-08
  1 1239 1.29872178E-08
  1 1240 1.29243263E-08
  1 1241 1.27675538E-08
  1 1242 1.23361871E-08
  1 1243 1.20700402E-08
  1 1244 1.21317768E-08
  1 1245 1.19582530E-08
  1 1246 1.20703293E-08
  1 1247 1.18328760E-08
  1 1248 1.17964458E-08
  1 1249 1.18153092E-08
  1 1250 1.18998966E-08
  1 1251 1.19087364E-08
  1 1252 1.19154229E-08
  1 1253 1.16930997E-08
  1 1254 1.16419301E-08
  1 1255 1.17627855E-08
  1 1256 1.15954596E-08
  1 1257 1.16383031E-08
  1 1258 1.18324049E-08
  1 1259 1.18287312E-08
  1 1260 1.19448728E-08
  1 1261 1.23438893E-08
  1 1262 1.26375617E-08
  1 1263 1.28652781E-08
  1 1264 1.29415167E-08
  1 1265 1.33412823E-08
  1 1266 1.34359420E-08
  1 1267 1.34607519E-08
  1 1268 1.35130089E-08
  1 1269 1.38287492E-08
  1 1270 1.39177202E-08
  1 1271 1.40654941E-08
  1 1272 1.43380663E-08
  1 1273 1.44624849E-08
  1 1274 1.45423285E-08
  1 1275 1.48575035E-08
  1 1276 1.49590391E-08
  1 1277 1.54551324E-08
  1 1278 1.53964310E-08
  1 1279 1.55231073E-08
  1 1280 1.57322984E-08
  1 1281 1.59933145E-08
  1 1282 1.57735255E-08
  1 1283 1.56577394E-08
  1 1284 1.55318470E-08
  1 1285 1.56253294E-08
  1 1286 1.54796358E-08
  1 1287 1.54722310E-08
  1 1288 1.53642182E-08
  1 1289 1.49508538E-08