# File generated by Flopy version 3.6.0 on 11/18/2024 at 13:26:20.
BEGIN options
  PRINT_OPTION  summary
  COMPLEXITY  complex
END options

BEGIN linear
  LINEAR_ACCELERATION  bicgstab
END linear

