# File generated by Flopy version 3.6.0 on 09/12/2024 at 15:42:24.
BEGIN options
END options

BEGIN dimensions
  MAXBOUND  5000
END dimensions

BEGIN period  1
  1 1 6.24593184E-09
  1 2 6.13277064E-09
  1 3 5.97325729E-09
  1 4 5.75774148E-09
  1 5 5.67288892E-09
  1 6 5.55869948E-09
  1 7 5.31418114E-09
  1 8 5.14949781E-09
  1 9 4.98033971E-09
  1 10 5.06265947E-09
  1 11 4.96677269E-09
  1 12 4.84377720E-09
  1 13 4.88560379E-09
  1 14 4.71807872E-09
  1 15 4.70631695E-09
  1 16 4.51799457E-09
  1 17 4.47123424E-09
  1 18 4.38611226E-09
  1 19 4.41568774E-09
  1 20 4.43164693E-09
  1 21 4.44989898E-09
  1 22 4.53754395E-09
  1 23 4.61485513E-09
  1 24 4.54908174E-09
  1 25 4.61054826E-09
  1 26 4.73335441E-09
  1 27 4.79820483E-09
  1 28 4.73934344E-09
  1 29 4.91039630E-09
  1 30 4.99623922E-09
  1 31 5.02723867E-09
  1 32 5.04948059E-09
  1 33 5.15551045E-09
  1 34 5.22505098E-09
  1 35 5.27040112E-09
  1 36 5.36110994E-09
  1 37 5.27117432E-09
  1 38 5.18405148E-09
  1 39 5.10943986E-09
  1 40 5.07200167E-09
  1 41 5.00257934E-09
  1 42 4.93767344E-09
  1 43 4.88385572E-09
  1 44 4.89431214E-09
  1 45 4.89998805E-09
  1 46 4.84605054E-09
  1 47 4.81545661E-09
  1 48 4.93102077E-09
  1 49 5.00430219E-09
  1 50 4.97482440E-09
  1 51 5.09499889E-09
  1 52 5.18547774E-09
  1 53 5.10909767E-09
  1 54 5.29706650E-09
  1 55 5.33222806E-09
  1 56 5.54131204E-09
  1 57 5.61743243E-09
  1 58 5.66687576E-09
  1 59 5.70304353E-09
  1 60 5.86152178E-09
  1 61 6.06747255E-09
  1 62 6.09010507E-09
  1 63 6.34452172E-09
  1 64 6.39992768E-09
  1 65 6.50086433E-09
  1 66 6.39682820E-09
  1 67 6.52200561E-09
  1 68 6.67513395E-09
  1 69 6.88775587E-09
  1 70 7.10595037E-09
  1 71 7.14718559E-09
  1 72 7.25655992E-09
  1 73 7.36998891E-09
  1 74 7.49803387E-09
  1 75 7.57071363E-09
  1 76 7.74790974E-09
  1 77 7.71981562E-09
  1 78 7.73496783E-09
  1 79 7.78144345E-09
  1 80 7.74193424E-09
  1 81 7.76328209E-09
  1 82 7.72117968E-09
  1 83 7.62395341E-09
  1 84 7.43947285E-09
  1 85 7.54748153E-09
  1 86 7.64794255E-09
  1 87 7.71079570E-09
  1 88 7.56347379E-09
  1 89 7.65831605E-09
  1 90 7.79365797E-09
  1 91 7.72654732E-09
  1 92 8.09710148E-09
  1 93 8.11868151E-09
  1 94 8.32291349E-09
  1 95 8.29857888E-09
  1 96 8.53422599E-09
  1 97 8.53461070E-09
  1 98 8.74001687E-09
  1 99 8.97300241E-09
  1 100 8.96029421E-09
  1 101 5.95186335E-09
  1 102 5.81958897E-09
  1 103 5.60577839E-09
  1 104 5.40969406E-09
  1 105 5.37010802E-09
  1 106 5.33343097E-09
  1 107 5.11988822E-09
  1 108 4.98215625E-09
  1 109 4.85260718E-09
  1 110 4.96482716E-09
  1 111 4.88313827E-09
  1 112 4.71667781E-09
  1 113 4.71804824E-09
  1 114 4.52698951E-09
  1 115 4.47298021E-09
  1 116 4.25915714E-09
  1 117 4.18254235E-09
  1 118 4.17910444E-09
  1 119 4.26623183E-09
  1 120 4.31661125E-09
  1 121 4.39905119E-09
  1 122 4.48306638E-09
  1 123 4.55697315E-09
  1 124 4.52122952E-09
  1 125 4.60085913E-09
  1 126 4.72654750E-09
  1 127 4.80053253E-09
  1 128 4.71015061E-09
  1 129 4.89002026E-09
  1 130 4.95482083E-09
  1 131 4.87300611E-09
  1 132 4.86079184E-09
  1 133 5.00047731E-09
  1 134 5.09826848E-09
  1 135 5.10008936E-09
  1 136 5.13985511E-09
  1 137 5.00698572E-09
  1 138 4.90417794E-09
  1 139 4.88776100E-09
  1 140 4.92748574E-09
  1 141 4.91888869E-09
  1 142 4.92204024E-09
  1 143 4.96108984E-09
  1 144 4.99232271E-09
  1 145 5.01497709E-09
  1 146 5.01085619E-09
  1 147 5.02883998E-09
  1 148 5.16480256E-09
  1 149 5.29258158E-09
  1 150 5.28404785E-09
  1 151 5.43200718E-09
  1 152 5.52384411E-09
  1 153 5.52021993E-09
  1 154 5.76165084E-09
  1 155 5.77407412E-09
  1 156 5.98567503E-09
  1 157 6.10699744E-09
  1 158 6.19818443E-09
  1 159 6.28541600E-09
  1 160 6.43502813E-09
  1 161 6.65166201E-09
  1 162 6.67304238E-09
  1 163 6.88220981E-09
  1 164 6.83885002E-09
  1 165 6.91079310E-09
  1 166 6.80975749E-09
  1 167 6.97544921E-09
  1 168 7.16390864E-09
  1 169 7.48856567E-09
  1 170 7.76592745E-09
  1 171 7.74385762E-09
  1 172 7.85544984E-09
  1 173 8.02062168E-09
  1 174 8.09655131E-09
  1 175 8.04686324E-09
  1 176 8.14587313E-09
  1 177 8.06605493E-09
  1 178 8.10037592E-09
  1 179 8.06095412E-09
  1 180 7.87103216E-09
  1 181 7.79354830E-09
  1 182 7.67834411E-09
  1 183 7.57067467E-09
  1 184 7.45995447E-09
  1 185 7.53736830E-09
  1 186 7.56170215E-09
  1 187 7.62746602E-09
  1 188 7.50761798E-09
  1 189 7.58424231E-09
  1 190 7.72656299E-09
  1 191 7.65933257E-09
  1 192 8.09151434E-09
  1 193 8.11735605E-09
  1 194 8.34443098E-09
  1 195 8.32190891E-09
  1 196 8.60323665E-09
  1 197 8.63279373E-09
  1 198 8.72024735E-09
  1 199 8.85238222E-09
  1 200 8.86998872E-09
  1 201 5.51109834E-09
  1 202 5.40613213E-09
  1 203 5.31435666E-09
  1 204 5.20752894E-09
  1 205 5.16847015E-09
  1 206 5.10941567E-09
  1 207 4.91486112E-09
  1 208 4.79155609E-09
  1 209 4.65613455E-09
  1 210 4.71299035E-09
  1 211 4.55318758E-09
  1 212 4.36317749E-09
  1 213 4.37397466E-09
  1 214 4.23244607E-09
  1 215 4.17802875E-09
  1 216 4.01597820E-09
  1 217 3.98681659E-09
  1 218 4.00372085E-09
  1 219 4.12069124E-09
  1 220 4.20691869E-09
  1 221 4.31361332E-09
  1 222 4.46201815E-09
  1 223 4.60231153E-09
  1 224 4.55575647E-09
  1 225 4.60077083E-09
  1 226 4.71261368E-09
  1 227 4.76884303E-09
  1 228 4.62726210E-09
  1 229 4.72841931E-09
  1 230 4.75210372E-09
  1 231 4.78880608E-09
  1 232 4.82425050E-09
  1 233 4.93827401E-09
  1 234 4.92245485E-09
  1 235 4.88440509E-09
  1 236 4.88521718E-09
  1 237 4.81190459E-09
  1 238 4.82664930E-09
  1 239 4.88331606E-09
  1 240 4.94679887E-09
  1 241 5.04428996E-09
  1 242 5.10500422E-09
  1 243 5.14662874E-09
  1 244 5.19533925E-09
  1 245 5.26054810E-09
  1 246 5.27284218E-09
  1 247 5.33845341E-09
  1 248 5.54899819E-09
  1 249 5.74087280E-09
  1 250 5.78948083E-09
  1 251 5.99318310E-09
  1 252 6.11100409E-09
  1 253 6.05910219E-09
  1 254 6.30616875E-09
  1 255 6.36890033E-09
  1 256 6.60184893E-09
  1 257 6.74892491E-09
  1 258 6.88732801E-09
  1 259 6.97236792E-09
  1 260 7.02843488E-09
  1 261 7.15422247E-09
  1 262 7.05823896E-09
  1 263 7.24765412E-09
  1 264 7.32486521E-09
  1 265 7.50656286E-09
  1 266 7.49524960E-09
  1 267 7.76175279E-09
  1 268 8.02455487E-09
  1 269 8.37344494E-09
  1 270 8.66186724E-09
  1 271 8.54952092E-09
  1 272 8.46826700E-09
  1 273 8.45623909E-09
  1 274 8.45703307E-09
  1 275 8.35990745E-09
  1 276 8.41330396E-09
  1 277 8.31665530E-09
  1 278 8.28696387E-09
  1 279 8.17952915E-09
  1 280 7.89078271E-09
  1 281 7.85679843E-09
  1 282 7.75317549E-09
  1 283 7.57015596E-09
  1 284 7.36452407E-09
  1 285 7.47057529E-09
  1 286 7.55137607E-09
  1 287 7.67471011E-09
  1 288 7.57610860E-09
  1 289 7.68525124E-09
  1 290 7.85135178E-09
  1 291 7.81036640E-09
  1 292 8.19048129E-09
  1 293 8.22095235E-09
  1 294 8.43517854E-09
  1 295 8.34581059E-09
  1 296 8.61278337E-09
  1 297 8.63349540E-09
  1 298 8.67103980E-09
  1 299 8.72521427E-09
  1 300 8.63232254E-09
  1 301 5.23778966E-09
  1 302 5.21717267E-09
  1 303 5.05773916E-09
  1 304 4.90743367E-09
  1 305 4.86202136E-09
  1 306 4.79470055E-09
  1 307 4.60414768E-09
  1 308 4.48635044E-09
  1 309 4.30469837E-09
  1 310 4.35775338E-09
  1 311 4.26642409E-09
  1 312 4.10772391E-09
  1 313 4.13236917E-09
  1 314 3.98320009E-09
  1 315 3.96228558E-09
  1 316 3.85095194E-09
  1 317 3.88647934E-09
  1 318 3.95056696E-09
  1 319 4.14049512E-09
  1 320 4.32780094E-09
  1 321 4.42982686E-09
  1 322 4.54654361E-09
  1 323 4.64550682E-09
  1 324 4.58015705E-09
  1 325 4.61735619E-09
  1 326 4.69703466E-09
  1 327 4.67723668E-09
  1 328 4.57223430E-09
  1 329 4.75556303E-09
  1 330 4.81498998E-09
  1 331 4.78239517E-09
  1 332 4.75290194E-09
  1 333 4.81656994E-09
  1 334 4.80102978E-09
  1 335 4.83349902E-09
  1 336 4.92531215E-09
  1 337 4.90213022E-09
  1 338 4.95809998E-09
  1 339 5.08164540E-09
  1 340 5.21837432E-09
  1 341 5.29968038E-09
  1 342 5.37995672E-09
  1 343 5.44306363E-09
  1 344 5.50351154E-09
  1 345 5.65215022E-09
  1 346 5.77227118E-09
  1 347 5.87661521E-09
  1 348 6.13805752E-09
  1 349 6.35954231E-09
  1 350 6.41131700E-09
  1 351 6.58562652E-09
  1 352 6.67493163E-09
  1 353 6.68582056E-09
  1 354 6.96542497E-09
  1 355 7.03627636E-09
  1 356 7.32968268E-09
  1 357 7.44242528E-09
  1 358 7.46050724E-09
  1 359 7.37746946E-09
  1 360 7.37680632E-09
  1 361 7.48899243E-09
  1 362 7.46166541E-09
  1 363 7.80754160E-09
  1 364 7.96701783E-09
  1 365 8.24557774E-09
  1 366 8.24694553E-09
  1 367 8.50634748E-09
  1 368 8.79310526E-09
  1 369 8.99893952E-09
  1 370 9.13337757E-09
  1 371 8.83253344E-09
  1 372 8.70287241E-09
  1 373 8.64660244E-09
  1 374 8.60496414E-09
  1 375 8.44035572E-09
  1 376 8.40413510E-09
  1 377 8.33306825E-09
  1 378 8.30676323E-09
  1 379 8.15728712E-09
  1 380 7.91296716E-09
  1 381 7.89218627E-09
  1 382 7.74940964E-09
  1 383 7.69284191E-09
  1 384 7.60915163E-09
  1 385 7.73621370E-09
  1 386 7.84144787E-09
  1 387 7.92509252E-09
  1 388 7.80207900E-09
  1 389 7.95790887E-09
  1 390 8.07469176E-09
  1 391 7.97904910E-09
  1 392 8.34033555E-09
  1 393 8.32408032E-09
  1 394 8.54231976E-09
  1 395 8.46708323E-09
  1 396 8.64431209E-09
  1 397 8.59398539E-09
  1 398 8.58928383E-09
  1 399 8.59938961E-09
  1 400 8.52971358E-09
  1 401 4.93891998E-09
  1 402 4.87195950E-09
  1 403 4.73161979E-09
  1 404 4.60355375E-09
  1 405 4.55968059E-09
  1 406 4.50108177E-09
  1 407 4.31715693E-09
  1 408 4.20455805E-09
  1 409 4.05887327E-09
  1 410 4.13800890E-09
  1 411 4.05121599E-09
  1 412 3.90587425E-09
  1 413 3.93617296E-09
  1 414 3.87688110E-09
  1 415 3.90481676E-09
  1 416 3.80723709E-09
  1 417 3.88556396E-09
  1 418 4.03806814E-09
  1 419 4.25276052E-09
  1 420 4.38873623E-09
  1 421 4.49655974E-09
  1 422 4.61328798E-09
  1 423 4.67882695E-09
  1 424 4.55680775E-09
  1 425 4.57933531E-09
  1 426 4.68125872E-09
  1 427 4.71980338E-09
  1 428 4.61615198E-09
  1 429 4.76818814E-09
  1 430 4.78255388E-09
  1 431 4.74242082E-09
  1 432 4.75562386E-09
  1 433 4.87219451E-09
  1 434 4.94135562E-09
  1 435 5.03192220E-09
  1 436 5.14722698E-09
  1 437 5.15565804E-09
  1 438 5.22048669E-09
  1 439 5.37470557E-09
  1 440 5.51841170E-09
  1 441 5.61148655E-09
  1 442 5.68022629E-09
  1 443 5.86371914E-09
  1 444 6.08589165E-09
  1 445 6.32490572E-09
  1 446 6.45428094E-09
  1 447 6.60656137E-09
  1 448 6.87733642E-09
  1 449 7.10414408E-09
  1 450 7.09376891E-09
  1 451 7.22760503E-09
  1 452 7.27626119E-09
  1 453 7.26831906E-09
  1 454 7.52752514E-09
  1 455 7.55471729E-09
  1 456 7.74762519E-09
  1 457 7.77642962E-09
  1 458 7.71221939E-09
  1 459 7.68682159E-09
  1 460 7.76513285E-09
  1 461 7.97510775E-09
  1 462 8.01481836E-09
  1 463 8.38809413E-09
  1 464 8.55474860E-09
  1 465 8.85399231E-09
  1 466 8.82693841E-09
  1 467 8.97005038E-09
  1 468 9.07464133E-09
  1 469 9.23045316E-09
  1 470 9.26286241E-09
  1 471 8.94624552E-09
  1 472 8.78628219E-09
  1 473 8.74359623E-09
  1 474 8.70625394E-09
  1 475 8.59799852E-09
  1 476 8.57996702E-09
  1 477 8.49407491E-09
  1 478 8.39685179E-09
  1 479 8.28595784E-09
  1 480 8.06672461E-09
  1 481 8.12087110E-09
  1 482 8.06096533E-09
  1 483 8.04639761E-09
  1 484 7.95155704E-09
  1 485 8.09144257E-09
  1 486 8.18171661E-09
  1 487 8.26359852E-09
  1 488 8.08998510E-09
  1 489 8.17956973E-09
  1 490 8.29224746E-09
  1 491 8.13877728E-09
  1 492 8.44946776E-09
  1 493 8.47077586E-09
  1 494 8.61669560E-09
  1 495 8.45683765E-09
  1 496 8.67140136E-09
  1 497 8.62300772E-09
  1 498 8.68489343E-09
  1 499 8.73574414E-09
  1 500 8.78462824E-09
  1 501 4.69967479E-09
  1 502 4.66486933E-09
  1 503 4.51087703E-09
  1 504 4.36905830E-09
  1 505 4.31371760E-09
  1 506 4.25224818E-09
  1 507 4.09304264E-09
  1 508 4.02454738E-09
  1 509 3.92233906E-09
  1 510 4.03838490E-09
  1 511 3.93761062E-09
  1 512 3.81072886E-09
  1 513 3.90507060E-09
  1 514 3.89188949E-09
  1 515 3.97029900E-09
  1 516 3.94284428E-09
  1 517 4.05374504E-09
  1 518 4.17628235E-09
  1 519 4.35890936E-09
  1 520 4.46473933E-09
  1 521 4.52652646E-09
  1 522 4.57722456E-09
  1 523 4.60018841E-09
  1 524 4.50313849E-09
  1 525 4.58267038E-09
  1 526 4.74350446E-09
  1 527 4.82502110E-09
  1 528 4.74059919E-09
  1 529 4.90505452E-09
  1 530 4.92226437E-09
  1 531 4.87575011E-09
  1 532 4.92078532E-09
  1 533 5.12520429E-09
  1 534 5.26438145E-09
  1 535 5.35396036E-09
  1 536 5.47515263E-09
  1 537 5.48286518E-09
  1 538 5.59405672E-09
  1 539 5.72806752E-09
  1 540 5.94114854E-09
  1 541 6.10006338E-09
  1 542 6.29653803E-09
  1 543 6.55486526E-09
  1 544 6.75246409E-09
  1 545 6.96179421E-09
  1 546 7.03905634E-09
  1 547 7.09749554E-09
  1 548 7.35067701E-09
  1 549 7.54700512E-09
  1 550 7.54358028E-09
  1 551 7.69761622E-09
  1 552 7.73507773E-09
  1 553 7.70384970E-09
  1 554 7.86602233E-09
  1 555 7.77396625E-09
  1 556 7.92975529E-09
  1 557 7.99890758E-09
  1 558 8.03338570E-09
  1 559 8.06471311E-09
  1 560 8.17152609E-09
  1 561 8.47464606E-09
  1 562 8.55943195E-09
  1 563 8.97619647E-09
  1 564 9.13677068E-09
  1 565 9.32725784E-09
  1 566 9.17627103E-09
  1 567 9.22508431E-09
  1 568 9.25236911E-09
  1 569 9.31177033E-09
  1 570 9.40237107E-09
  1 571 9.21000721E-09
  1 572 9.12268395E-09
  1 573 9.12018719E-09
  1 574 9.06613181E-09
  1 575 8.93565442E-09
  1 576 8.90381548E-09
  1 577 8.78945732E-09
  1 578 8.73340777E-09
  1 579 8.67029051E-09
  1 580 8.48240706E-09
  1 581 8.52163143E-09
  1 582 8.41466002E-09
  1 583 8.37584030E-09
  1 584 8.28942024E-09
  1 585 8.40503646E-09
  1 586 8.47166009E-09
  1 587 8.56262651E-09
  1 588 8.36142319E-09
  1 589 8.36273454E-09
  1 590 8.36470989E-09
  1 591 8.24931781E-09
  1 592 8.50720491E-09
  1 593 8.41875962E-09
  1 594 8.62131912E-09
  1 595 8.44445914E-09
  1 596 8.66295188E-09
  1 597 8.70802338E-09
  1 598 8.91813854E-09
  1 599 9.03830127E-09
  1 600 9.12325838E-09
  1 601 4.52172082E-09
  1 602 4.48856136E-09
  1 603 4.35689133E-09
  1 604 4.23886772E-09
  1 605 4.21025454E-09
  1 606 4.20054391E-09
  1 607 4.05275933E-09
  1 608 4.00212026E-09
  1 609 3.89277142E-09
  1 610 3.99946534E-09
  1 611 3.95593407E-09
  1 612 3.89442991E-09
  1 613 4.04630447E-09
  1 614 4.07635283E-09
  1 615 4.21745133E-09
  1 616 4.20369602E-09
  1 617 4.25369414E-09
  1 618 4.32638495E-09
  1 619 4.44777122E-09
  1 620 4.49631152E-09
  1 621 4.51396837E-09
  1 622 4.61778776E-09
  1 623 4.74804793E-09
  1 624 4.74187870E-09
  1 625 4.85332498E-09
  1 626 4.99506463E-09
  1 627 5.06364309E-09
  1 628 4.94453558E-09
  1 629 5.08978181E-09
  1 630 5.15550061E-09
  1 631 5.21887907E-09
  1 632 5.32926168E-09
  1 633 5.51079187E-09
  1 634 5.64742437E-09
  1 635 5.74619321E-09
  1 636 5.89814292E-09
  1 637 5.87602080E-09
  1 638 5.97606124E-09
  1 639 6.21006801E-09
  1 640 6.53808178E-09
  1 641 6.75735207E-09
  1 642 6.95187769E-09
  1 643 7.14551950E-09
  1 644 7.25038574E-09
  1 645 7.41512952E-09
  1 646 7.38320169E-09
  1 647 7.46603095E-09
  1 648 7.70471006E-09
  1 649 7.88166677E-09
  1 650 7.86910267E-09
  1 651 8.01419459E-09
  1 652 7.97365458E-09
  1 653 7.89592534E-09
  1 654 8.10576216E-09
  1 655 8.06498861E-09
  1 656 8.24274600E-09
  1 657 8.31835839E-09
  1 658 8.36691967E-09
  1 659 8.47848273E-09
  1 660 8.64345900E-09
  1 661 8.97791276E-09
  1 662 9.09165758E-09
  1 663 9.47575211E-09
  1 664 9.60542468E-09
  1 665 9.73313474E-09
  1 666 9.48637673E-09
  1 667 9.51995828E-09
  1 668 9.57141911E-09
  1 669 9.67464995E-09
  1 670 9.84465922E-09
  1 671 9.58986243E-09
  1 672 9.40209191E-09
  1 673 9.38221060E-09
  1 674 9.41798496E-09
  1 675 9.37219424E-09
  1 676 9.31777184E-09
  1 677 9.13546883E-09
  1 678 9.00672609E-09
  1 679 8.92214215E-09
  1 680 8.71715705E-09
  1 681 8.76734985E-09
  1 682 8.71736550E-09
  1 683 8.70467976E-09
  1 684 8.60973924E-09
  1 685 8.67775579E-09
  1 686 8.61592016E-09
  1 687 8.52263689E-09
  1 688 8.29353454E-09
  1 689 8.30454726E-09
  1 690 8.34910857E-09
  1 691 8.20347894E-09
  1 692 8.42791537E-09
  1 693 8.40583055E-09
  1 694 8.67306485E-09
  1 695 8.66090943E-09
  1 696 9.08122157E-09
  1 697 9.14606776E-09
  1 698 9.24540781E-09
  1 699 9.25072990E-09
  1 700 9.21765750E-09
  1 701 4.40353823E-09
  1 702 4.41453764E-09
  1 703 4.35797953E-09
  1 704 4.30955690E-09
  1 705 4.28230656E-09
  1 706 4.26947128E-09
  1 707 4.12138050E-09
  1 708 4.06004449E-09
  1 709 3.96492763E-09
  1 710 4.12721410E-09
  1 711 4.15219463E-09
  1 712 4.15960166E-09
  1 713 4.35149307E-09
  1 714 4.38548310E-09
  1 715 4.49125942E-09
  1 716 4.39459629E-09
  1 717 4.41055173E-09
  1 718 4.47307068E-09
  1 719 4.62101770E-09
  1 720 4.74308246E-09
  1 721 4.81152520E-09
  1 722 4.95775255E-09
  1 723 5.09693304E-09
  1 724 5.07144997E-09
  1 725 5.15156988E-09
  1 726 5.26881907E-09
  1 727 5.37044496E-09
  1 728 5.32767519E-09
  1 729 5.57532952E-09
  1 730 5.67818350E-09
  1 731 5.72360402E-09
  1 732 5.75670463E-09
  1 733 5.91212898E-09
  1 734 6.04621049E-09
  1 735 6.12557270E-09
  1 736 6.27175806E-09
  1 737 6.28938189E-09
  1 738 6.45743469E-09
  1 739 6.76831419E-09
  1 740 7.11545466E-09
  1 741 7.33404949E-09
  1 742 7.42317532E-09
  1 743 7.45785999E-09
  1 744 7.49563268E-09
  1 745 7.68231988E-09
  1 746 7.73757861E-09
  1 747 7.82641619E-09
  1 748 8.02140763E-09
  1 749 8.18198457E-09
  1 750 8.11507503E-09
  1 751 8.26011379E-09
  1 752 8.27240498E-09
  1 753 8.16315989E-09
  1 754 8.28993863E-09
  1 755 8.21247093E-09
  1 756 8.42172882E-09
  1 757 8.63630421E-09
  1 758 8.78086312E-09
  1 759 8.98182565E-09
  1 760 9.18614378E-09
  1 761 9.56807499E-09
  1 762 9.58814026E-09
  1 763 9.85969933E-09
  1 764 9.90168736E-09
  1 765 1.00057710E-08
  1 766 9.67895227E-09
  1 767 9.61802871E-09
  1 768 9.63969063E-09
  1 769 9.85565109E-09
  1 770 1.00499381E-08
  1 771 9.83536237E-09
  1 772 9.67932718E-09
  1 773 9.71803192E-09
  1 774 9.66393551E-09
  1 775 9.54184705E-09
  1 776 9.44554311E-09
  1 777 9.29458392E-09
  1 778 9.16036976E-09
  1 779 9.04549117E-09
  1 780 8.76501119E-09
  1 781 8.80461431E-09
  1 782 8.72167160E-09
  1 783 8.65826613E-09
  1 784 8.46140924E-09
  1 785 8.45184130E-09
  1 786 8.36824716E-09
  1 787 8.35478545E-09
  1 788 8.21207441E-09
  1 789 8.26291688E-09
  1 790 8.35739542E-09
  1 791 8.31828838E-09
  1 792 8.67343142E-09
  1 793 8.77590267E-09
  1 794 9.08424581E-09
  1 795 8.99866757E-09
  1 796 9.28392706E-09
  1 797 9.25665841E-09
  1 798 9.31460700E-09
  1 799 9.30923852E-09
  1 800 9.31119988E-09
  1 801 4.39250266E-09
  1 802 4.47474022E-09
  1 803 4.41426542E-09
  1 804 4.37859931E-09
  1 805 4.34570255E-09
  1 806 4.35380748E-09
  1 807 4.20993872E-09
  1 808 4.23107657E-09
  1 809 4.19450624E-09
  1 810 4.43212682E-09
  1 811 4.47216617E-09
  1 812 4.46030563E-09
  1 813 4.66358197E-09
  1 814 4.66980599E-09
  1 815 4.73129330E-09
  1 816 4.63103452E-09
  1 817 4.68107578E-09
  1 818 4.81752356E-09
  1 819 4.98350892E-09
  1 820 5.11406344E-09
  1 821 5.19951923E-09
  1 822 5.32609413E-09
  1 823 5.47140897E-09
  1 824 5.40493638E-09
  1 825 5.46977312E-09
  1 826 5.65065235E-09
  1 827 5.76257576E-09
  1 828 5.71177558E-09
  1 829 5.90747561E-09
  1 830 5.95480639E-09
  1 831 5.98875021E-09
  1 832 6.05885510E-09
  1 833 6.25238769E-09
  1 834 6.34550711E-09
  1 835 6.47270036E-09
  1 836 6.68852259E-09
  1 837 6.81446231E-09
  1 838 6.99940154E-09
  1 839 7.19097974E-09
  1 840 7.40438436E-09
  1 841 7.49676567E-09
  1 842 7.57736610E-09
  1 843 7.71455059E-09
  1 844 7.81866983E-09
  1 845 8.09022833E-09
  1 846 8.11679237E-09
  1 847 8.13748982E-09
  1 848 8.24718073E-09
  1 849 8.38211643E-09
  1 850 8.29161464E-09
  1 851 8.38116102E-09
  1 852 8.36648092E-09
  1 853 8.31832444E-09
  1 854 8.53982897E-09
  1 855 8.64289170E-09
  1 856 9.07711627E-09
  1 857 9.35880559E-09
  1 858 9.47289142E-09
  1 859 9.61730448E-09
  1 860 9.73419887E-09
  1 861 9.97839381E-09
  1 862 9.88271709E-09
  1 863 1.01314180E-08
  1 864 1.01286578E-08
  1 865 1.00937605E-08
  1 866 9.78504165E-09
  1 867 9.82091302E-09
  1 868 9.96371850E-09
  1 869 1.01086626E-08
  1 870 1.02266312E-08
  1 871 9.93117901E-09
  1 872 9.71697129E-09
  1 873 9.70150558E-09
  1 874 9.68378210E-09
  1 875 9.54547716E-09
  1 876 9.46126045E-09
  1 877 9.32111199E-09
  1 878 9.20637371E-09
  1 879 9.05117212E-09
  1 880 8.71755981E-09
  1 881 8.74704099E-09
  1 882 8.59681840E-09
  1 883 8.47222840E-09
  1 884 8.30564835E-09
  1 885 8.35869791E-09
  1 886 8.35232519E-09
  1 887 8.43959738E-09
  1 888 8.29124445E-09
  1 889 8.37817146E-09
  1 890 8.52579871E-09
  1 891 8.55933761E-09
  1 892 8.91264619E-09
  1 893 8.98154291E-09
  1 894 9.15229413E-09
  1 895 8.88465326E-09
  1 896 9.08630119E-09
  1 897 9.13594524E-09
  1 898 9.28428135E-09
  1 899 9.33555041E-09
  1 900 9.41316426E-09
  1 901 4.51342257E-09
  1 902 4.56245645E-09
  1 903 4.53442211E-09
  1 904 4.49596707E-09
  1 905 4.48266431E-09
  1 906 4.54307367E-09
  1 907 4.46223672E-09
  1 908 4.53238120E-09
  1 909 4.49348481E-09
  1 910 4.74507333E-09
  1 911 4.76431471E-09
  1 912 4.72279214E-09
  1 913 4.87601396E-09
  1 914 4.89213320E-09
  1 915 5.00486138E-09
  1 916 4.97748778E-09
  1 917 5.05959945E-09
  1 918 5.19085207E-09
  1 919 5.36443778E-09
  1 920 5.51765417E-09
  1 921 5.61903178E-09
  1 922 5.78946284E-09
  1 923 5.94681289E-09
  1 924 5.87361168E-09
  1 925 5.93573482E-09
  1 926 6.11153773E-09
  1 927 6.19409716E-09
  1 928 6.10823554E-09
  1 929 6.34177705E-09
  1 930 6.40382618E-09
  1 931 6.39534442E-09
  1 932 6.42890572E-09
  1 933 6.57492544E-09
  1 934 6.77679541E-09
  1 935 6.99480704E-09
  1 936 7.20906094E-09
  1 937 7.18719742E-09
  1 938 7.25479073E-09
  1 939 7.39842921E-09
  1 940 7.60777907E-09
  1 941 7.72816700E-09
  1 942 7.79320431E-09
  1 943 7.95947490E-09
  1 944 8.09091646E-09
  1 945 8.29394204E-09
  1 946 8.28561745E-09
  1 947 8.27403947E-09
  1 948 8.42511020E-09
  1 949 8.63102328E-09
  1 950 8.60676412E-09
  1 951 8.75053660E-09
  1 952 8.84599365E-09
  1 953 8.94067530E-09
  1 954 9.29629932E-09
  1 955 9.41350923E-09
  1 956 9.78445719E-09
  1 957 1.00336764E-08
  1 958 1.00798766E-08
  1 959 1.00793373E-08
  1 960 9.99349111E-09
  1 961 1.01078566E-08
  1 962 9.94069912E-09
  1 963 1.01304109E-08
  1 964 1.01747566E-08
  1 965 1.02366068E-08
  1 966 1.00166539E-08
  1 967 1.00063254E-08
  1 968 1.00193155E-08
  1 969 1.00077203E-08
  1 970 1.00988353E-08
  1 971 9.83763026E-09
  1 972 9.67880751E-09
  1 973 9.65773716E-09
  1 974 9.61194732E-09
  1 975 9.49523490E-09
  1 976 9.41998473E-09
  1 977 9.32676520E-09
  1 978 9.15166287E-09
  1 979 9.04769140E-09
  1 980 8.71386665E-09
  1 981 8.72407645E-09
  1 982 8.57524780E-09
  1 983 8.48152096E-09
  1 984 8.36061013E-09
  1 985 8.44092242E-09
  1 986 8.43271987E-09
  1 987 8.46451954E-09
  1 988 8.34145098E-09
  1 989 8.54449957E-09
  1 990 8.68916846E-09
  1 991 8.67479783E-09
  1 992 8.95698550E-09
  1 993 8.86861682E-09
  1 994 9.01966309E-09
  1 995 8.86692212E-09
  1 996 9.22117058E-09
  1 997 9.38457297E-09
  1 998 9.62512031E-09
  1 999 9.71925439E-09
  1 1000 9.79855495E-09
  1 1001 4.70825366E-09
  1 1002 4.78091421E-09
  1 1003 4.73443447E-09
  1 1004 4.72904175E-09
  1 1005 4.73017099E-09
  1 1006 4.80233193E-09
  1 1007 4.70553851E-09
  1 1008 4.76910521E-09
  1 1009 4.74130579E-09
  1 1010 4.98324971E-09
  1 1011 5.01212222E-09
  1 1012 5.01534052E-09
  1 1013 5.25425401E-09
  1 1014 5.34901141E-09
  1 1015 5.52632991E-09
  1 1016 5.48505567E-09
  1 1017 5.55763411E-09
  1 1018 5.69468667E-09
  1 1019 5.86882927E-09
  1 1020 6.09312290E-09
  1 1021 6.18515944E-09
  1 1022 6.30543798E-09
  1 1023 6.41709864E-09
  1 1024 6.35394764E-09
  1 1025 6.47305297E-09
  1 1026 6.63077004E-09
  1 1027 6.70219397E-09
  1 1028 6.51255648E-09
  1 1029 6.60423678E-09
  1 1030 6.61405186E-09
  1 1031 6.61481446E-09
  1 1032 6.72910121E-09
  1 1033 6.94439711E-09
  1 1034 7.14172724E-09
  1 1035 7.27898322E-09
  1 1036 7.40997743E-09
  1 1037 7.29099766E-09
  1 1038 7.29947726E-09
  1 1039 7.46790204E-09
  1 1040 7.70857961E-09
  1 1041 7.82281528E-09
  1 1042 7.92985108E-09
  1 1043 8.13359752E-09
  1 1044 8.20124438E-09
  1 1045 8.42249931E-09
  1 1046 8.48031320E-09
  1 1047 8.60989655E-09
  1 1048 8.84684196E-09
  1 1049 9.10019046E-09
  1 1050 9.13526826E-09
  1 1051 9.44387786E-09
  1 1052 9.60832799E-09
  1 1053 9.65465695E-09
  1 1054 9.90255467E-09
  1 1055 9.91494900E-09
  1 1056 1.00971340E-08
  1 1057 1.01174453E-08
  1 1058 1.00638577E-08
  1 1059 1.00669077E-08
  1 1060 1.00060788E-08
  1 1061 1.01914553E-08
  1 1062 1.00829283E-08
  1 1063 1.02474475E-08
  1 1064 1.02572623E-08
  1 1065 1.02877799E-08
  1 1066 9.94599684E-09
  1 1067 9.88494195E-09
  1 1068 9.89936617E-09
  1 1069 9.95238214E-09
  1 1070 1.01427090E-08
  1 1071 9.92583787E-09
  1 1072 9.75290861E-09
  1 1073 9.73898572E-09
  1 1074 9.71718071E-09
  1 1075 9.56753777E-09
  1 1076 9.39767532E-09
  1 1077 9.23779915E-09
  1 1078 9.02879487E-09
  1 1079 8.90876304E-09
  1 1080 8.56073461E-09
  1 1081 8.62571688E-09
  1 1082 8.51513738E-09
  1 1083 8.45963743E-09
  1 1084 8.38190154E-09
  1 1085 8.54737013E-09
  1 1086 8.63291457E-09
  1 1087 8.77074625E-09
  1 1088 8.63945847E-09
  1 1089 8.72510884E-09
  1 1090 8.76890322E-09
  1 1091 8.64642123E-09
  1 1092 8.85245342E-09
  1 1093 8.86172661E-09
  1 1094 9.25501721E-09
  1 1095 9.26569824E-09
  1 1096 9.69839491E-09
  1 1097 9.86432790E-09
  1 1098 1.01135963E-08
  1 1099 1.00528696E-08
  1 1100 9.98821874E-09
  1 1101 4.92246082E-09
  1 1102 5.01394511E-09
  1 1103 4.99416116E-09
  1 1104 4.99181446E-09
  1 1105 5.00258399E-09
  1 1106 5.09816799E-09
  1 1107 5.02250317E-09
  1 1108 5.10807481E-09
  1 1109 5.10196415E-09
  1 1110 5.41730991E-09
  1 1111 5.49973314E-09
  1 1112 5.53838853E-09
  1 1113 5.80843814E-09
  1 1114 5.89472827E-09
  1 1115 6.07131996E-09
  1 1116 6.04736850E-09
  1 1117 6.12403891E-09
  1 1118 6.31831565E-09
  1 1119 6.50383341E-09
  1 1120 6.67033145E-09
  1 1121 6.72157269E-09
  1 1122 6.83721618E-09
  1 1123 7.00106861E-09
  1 1124 6.92455877E-09
  1 1125 6.91974545E-09
  1 1126 6.97650112E-09
  1 1127 6.88793291E-09
  1 1128 6.65857172E-09
  1 1129 6.81171530E-09
  1 1130 6.88489375E-09
  1 1131 6.90506364E-09
  1 1132 7.01152683E-09
  1 1133 7.13643471E-09
  1 1134 7.20110696E-09
  1 1135 7.26541854E-09
  1 1136 7.37900590E-09
  1 1137 7.33525397E-09
  1 1138 7.38126354E-09
  1 1139 7.60224647E-09
  1 1140 7.93168982E-09
  1 1141 8.09715088E-09
  1 1142 8.26637145E-09
  1 1143 8.46939777E-09
  1 1144 8.56829690E-09
  1 1145 8.87085108E-09
  1 1146 9.00896071E-09
  1 1147 9.13015744E-09
  1 1148 9.36397820E-09
  1 1149 9.68010285E-09
  1 1150 9.70788492E-09
  1 1151 9.94745424E-09
  1 1152 9.95958556E-09
  1 1153 9.82684344E-09
  1 1154 9.94548480E-09
  1 1155 9.90219399E-09
  1 1156 1.00835327E-08
  1 1157 1.01500447E-08
  1 1158 1.00831575E-08
  1 1159 1.01237110E-08
  1 1160 1.01540902E-08
  1 1161 1.03846582E-08
  1 1162 1.01870036E-08
  1 1163 1.02876197E-08
  1 1164 1.02759809E-08
  1 1165 1.03004192E-08
  1 1166 9.99055819E-09
  1 1167 9.91824784E-09
  1 1168 1.00450994E-08
  1 1169 1.02386285E-08
  1 1170 1.05659352E-08
  1 1171 1.03038457E-08
  1 1172 1.00679101E-08
  1 1173 9.93824598E-09
  1 1174 9.76750524E-09
  1 1175 9.44220485E-09
  1 1176 9.14253580E-09
  1 1177 8.95011981E-09
  1 1178 8.80870643E-09
  1 1179 8.83130980E-09
  1 1180 8.60781773E-09
  1 1181 8.72339712E-09
  1 1182 8.63696151E-09
  1 1183 8.66731583E-09
  1 1184 8.68183658E-09
  1 1185 8.81809915E-09
  1 1186 8.88569223E-09
  1 1187 8.98108372E-09
  1 1188 8.78817548E-09
  1 1189 8.82363728E-09
  1 1190 8.83392346E-09
  1 1191 8.79106809E-09
  1 1192 9.14507198E-09
  1 1193 9.40061254E-09
  1 1194 9.83319474E-09
  1 1195 9.80092421E-09
  1 1196 1.03327765E-08
  1 1197 1.05006660E-08
  1 1198 1.06153538E-08
  1 1199 1.04692979E-08
  1 1200 1.04196320E-08
  1 1201 5.19851227E-09
  1 1202 5.36014130E-09
  1 1203 5.33635237E-09
  1 1204 5.37027788E-09
  1 1205 5.41687310E-09
  1 1206 5.57126399E-09
  1 1207 5.52182893E-09
  1 1208 5.69150737E-09
  1 1209 5.68821363E-09
  1 1210 6.04071238E-09
  1 1211 6.08091091E-09
  1 1212 6.09564191E-09
  1 1213 6.40229699E-09
  1 1214 6.56293499E-09
  1 1215 6.80654680E-09
  1 1216 6.72947765E-09
  1 1217 6.79177515E-09
  1 1218 6.94265559E-09
  1 1219 7.12611310E-09
  1 1220 7.23042469E-09
  1 1221 7.22079524E-09
  1 1222 7.30770957E-09
  1 1223 7.33224597E-09
  1 1224 7.08958738E-09
  1 1225 6.98915952E-09
  1 1226 7.01793828E-09
  1 1227 7.01924794E-09
  1 1228 6.84701771E-09
  1 1229 7.05019199E-09
  1 1230 7.06211458E-09
  1 1231 7.04379667E-09
  1 1232 7.09521740E-09
  1 1233 7.26034637E-09
  1 1234 7.41299172E-09
  1 1235 7.54042729E-09
  1 1236 7.68815732E-09
  1 1237 7.66028986E-09
  1 1238 7.82102736E-09
  1 1239 8.08095244E-09
  1 1240 8.37069475E-09
  1 1241 8.60334831E-09
  1 1242 8.78356683E-09
  1 1243 9.01686097E-09
  1 1244 9.17686713E-09
  1 1245 9.47393793E-09
  1 1246 9.54060310E-09
  1 1247 9.63976912E-09
  1 1248 9.83724142E-09
  1 1249 1.00338220E-08
  1 1250 9.92336447E-09
  1 1251 1.00024499E-08
  1 1252 9.91182926E-09
  1 1253 9.87190655E-09
  1 1254 9.96855977E-09
  1 1255 9.86076424E-09
  1 1256 1.01242218E-08
  1 1257 1.02719881E-08
  1 1258 1.02581761E-08
  1 1259 1.03515567E-08
  1 1260 1.02748687E-08
  1 1261 1.04220040E-08
  1 1262 1.02151932E-08
  1 1263 1.03716607E-08
  1 1264 1.04986368E-08
  1 1265 1.05928332E-08
  1 1266 1.04166908E-08
  1 1267 1.04721377E-08
  1 1268 1.05953064E-08
  1 1269 1.07009046E-08
  1 1270 1.08766931E-08
  1 1271 1.05332545E-08
  1 1272 1.00910306E-08
  1 1273 9.76286258E-09
  1 1274 9.54271969E-09
  1 1275 9.32173800E-09
  1 1276 9.19151636E-09
  1 1277 9.20635106E-09
  1 1278 9.19842861E-09
  1 1279 9.19446516E-09
  1 1280 8.92592776E-09
  1 1281 9.02400550E-09
  1 1282 8.90248793E-09
  1 1283 8.90069288E-09
  1 1284 8.94353987E-09
  1 1285 9.11742145E-09
  1 1286 9.14071686E-09
  1 1287 9.15199797E-09
  1 1288 8.94570058E-09
  1 1289 9.04548455E-09