# File generated by Flopy version 3.6.0 on 04/03/2024 at 11:46:14.
BEGIN griddata
  strt
    INTERNAL  FACTOR  1.0
        15.00000000      15.00000000      15.00000000      15.00000000      15.00000000      15.00000000      15.00000000      15.00000000      15.00000000      15.00000000      15.00000000      15.00000000      15.00000000      15.00000000      15.00000000      15.00000000      15.00000000      15.00000000      15.00000000      15.00000000
        15.00000000      15.00000000      15.00000000      15.00000000      15.00000000      15.00000000      15.00000000      15.00000000      15.00000000      15.00000000      15.00000000      15.00000000      15.00000000      15.00000000      15.00000000      15.00000000      15.00000000      15.00000000      15.00000000      15.00000000
        15.00000000      15.00000000      15.00000000      15.00000000      15.00000000      15.00000000      15.00000000      15.00000000      15.00000000      15.00000000      15.00000000      15.00000000      15.00000000      15.00000000      15.00000000      15.00000000      15.00000000      15.00000000      15.00000000      15.00000000
        15.00000000      15.00000000      15.00000000      15.00000000      15.00000000      15.00000000      15.00000000      15.00000000      15.00000000      15.00000000      15.00000000      15.00000000      15.00000000      15.00000000      15.00000000      15.00000000      15.00000000      15.00000000      15.00000000      15.00000000
        15.00000000      15.00000000      15.00000000      15.00000000      15.00000000      15.00000000      15.00000000      15.00000000      15.00000000      15.00000000      15.00000000      15.00000000      15.00000000      15.00000000      15.00000000      15.00000000      15.00000000      15.00000000      15.00000000      15.00000000
        15.09959333      15.08953917      15.04968722      15.04395342      15.04433114      15.04504245      15.05664695      15.06348950      15.06722046      15.06062870      15.06426775      15.08080809      15.07977251      15.08628477      15.08493193      15.07180309      15.07192416      15.05901834      15.04746705      15.05943148
        15.06147022      15.05739880      15.06555768      15.07154717      15.08872291      15.08765070      15.08752207      15.11517194      15.08602510      15.08068384      15.08593758      15.08148777      15.09072034      15.11280426      15.10842700      15.14954897      15.16118818      15.15952999      15.14762715      15.16656504
        15.15760779      15.14863756      15.14276048      15.13722621      15.14100576      15.14079442      15.13447310      15.13696584      15.11606834      15.11260584      15.10386673      15.07667973      15.08841934      15.08232567      15.09020836      15.09826739      15.10833602      15.11398522      15.13982437      15.13127856
        15.10842136      15.12171611      15.10493197      15.12409572      15.15285747      15.17883213      15.16975509      15.15657786      15.16197095      15.16229052      15.19134671      15.22352698      15.22277533      15.22722325      15.21808318      15.15648856      15.12225187      15.09185672      15.07456741      15.07529255
        15.08081099      15.09321416      15.10988522      15.09620415      15.11382358      15.10151560      15.10480043      15.13980083      15.13460150      15.12659199      15.13925981      15.15665707      15.15694166      15.12689157      15.09109809      15.07527070      15.07148901      15.07505945      15.09326379      15.09769254
        15.18015296      15.17282735      15.12079454      15.09300901      15.09885103      15.09211790      15.10105344      15.11924146      15.12391801      15.13195042      15.13640768      15.14574838      15.15384196      15.15126313      15.15310221      15.13444754      15.12102803      15.11842658      15.10230513      15.10295181
        15.11552777      15.11568211      15.12583277      15.12957725      15.13722889      15.16187293      15.17985757      15.22706508      15.20272099      15.17639294      15.17778510      15.17884496      15.19884060      15.22374000      15.23916871      15.28068917      15.30625360      15.30528508      15.31071132      15.28814285
        15.28862525      15.27251233      15.26480590      15.26959209      15.27256127      15.26105865      15.24837489      15.23967360      15.23078360      15.19518026      15.19030833      15.16644446      15.15897541      15.16207565      15.16642317      15.19000776      15.20004564      15.21668375      15.24505967      15.24202084
        15.22429373      15.22442473      15.20240576      15.21554864      15.24067572      15.26788162      15.29089372      15.27428049      15.27399772      15.28582828      15.31109045      15.34720602      15.35404865      15.35500217      15.34800802      15.28620837      15.23675636      15.19313374      15.16444378      15.15264036
        15.15761925      15.17200289      15.19586877      15.19022430      15.18054140      15.19256336      15.19707580      15.21488064      15.22616414      15.22799824      15.22791378      15.25656112      15.27157611      15.23971257      15.19703715      15.16577488      15.15319883      15.15729926      15.17830048      15.19179987
        15.26496221      15.24935357      15.19706767      15.15622733      15.15684519      15.14829316      15.15446767      15.16902499      15.18502202      15.19565890      15.20139224      15.21300814      15.22246230      15.21445066      15.20478997      15.19016427      15.16709504      15.16263924      15.15383179      15.14789630
        15.16180007      15.16666262      15.17495180      15.18376686      15.18426902      15.21625604      15.26382360      15.30516176      15.32277369      15.28972311      15.28061278      15.28166999      15.30244920      15.32314712      15.37224680      15.39740009      15.43090020      15.44342647      15.46290374      15.42469522
        15.39247774      15.38326959      15.36753512      15.36610330      15.36978316      15.36414913      15.35454444      15.33063579      15.32331090      15.28463602      15.25252985      15.24521523      15.22588769      15.23399246      15.24171720      15.26419603      15.27850008      15.29920885      15.31798952      15.32434342
        15.31045556      15.29791634      15.28984210      15.28651380      15.30936679      15.32858696      15.35705771      15.36202226      15.35821956      15.37525781      15.38799135      15.42067208      15.43657090      15.43354190      15.43228421      15.39370092      15.33789894      15.29120587      15.25013757      15.23923320
        15.23350244      15.24465186      15.26099259      15.26469724      15.25303244      15.26488888      15.27182287      15.27437268      15.28791225      15.29485106      15.30693310      15.33052979      15.35534226      15.34887491      15.30929286      15.26766707      15.24347416      15.25306328      15.26089247      15.27819197
        15.32368564      15.31726934      15.27943504      15.22019345      15.20878377      15.21097384      15.21086240      15.22862634      15.24750022      15.25459895      15.26057772      15.27090368      15.27820618      15.27418081      15.25784895      15.23722572      15.21089967      15.20013298      15.19619928      15.19485719
        15.20364064      15.21189400      15.21687703      15.22764425      15.23909988      15.26139545      15.32132861      15.37548393      15.41362077      15.40338444      15.39618425      15.39404431      15.40452994      15.43263783      15.48225576      15.50829474      15.54619954      15.56086677      15.55316838      15.55340629
        15.49539542      15.47157311      15.45217215      15.43592025      15.43520461      15.43702870      15.43960987      15.42031065      15.38875834      15.36394466      15.31930414      15.30482947      15.29253482      15.29456319      15.30697540      15.31853152      15.34003987      15.35444320      15.37371262      15.38717489
        15.37092172      15.35743418      15.35831297      15.34920335      15.36252167      15.37986754      15.39564668      15.41356216      15.41761722      15.43133728      15.44809111      15.46813937      15.48469265      15.48683526      15.48486890      15.47065630      15.42582202      15.37865423      15.33731607      15.31312788
        15.30845676      15.30836633      15.31450422      15.31946457      15.31839015      15.32256360      15.32529998      15.33182954      15.34009811      15.34393622      15.36986655      15.38984529      15.42497685      15.44557065      15.41222714      15.37534508      15.34139529      15.35014600      15.34923910      15.35664520
        15.36387414      15.36757130      15.35855431      15.30508346      15.27080819      15.28246083      15.27426911      15.29598080      15.30813913      15.31224958      15.31787536      15.31613949      15.32138220      15.32010145      15.31037107      15.28632179      15.25286144      15.23591928      15.23558361      15.23625240
        15.24258746      15.25424341      15.25908625      15.26608765      15.28256533      15.30556195      15.36004772      15.43057829      15.47364220      15.49864131      15.51013687      15.50968089      15.50595740      15.54069369      15.56179804      15.60682059      15.63724075      15.65271106      15.64524071      15.64234894
        15.59811653      15.54205656      15.51558241      15.49506703      15.48589324      15.48894230      15.49196494      15.49238142      15.46340874      15.42808826      15.38669473      15.35382163      15.35026958      15.34610316      15.35754513      15.36939705      15.38759640      15.39974031      15.41494064      15.42550183
        15.41983674      15.40664870      15.40202702      15.40143923      15.40477575      15.42068833      15.43231747      15.44651455      15.45687032      15.46783871      15.48876120      15.50258887      15.51493474      15.52267975      15.52227543      15.51689712      15.49413125      15.45200129      15.41738829      15.38096997
        15.36799878      15.36354600      15.36278929      15.36688050      15.36797553      15.36871437      15.37567123      15.37779527      15.38178947      15.39589005      15.41772630      15.45073336      15.48707859      15.52233756      15.51654136      15.48500677      15.45244966      15.43751815      15.44363267      15.43722049
        15.41898025      15.41715126      15.41028506      15.38909299      15.35235854      15.35464039      15.36081022      15.36457896      15.37203180      15.36808218      15.36707068      15.35905311      15.35821642      15.35617086      15.34910345      15.33408903      15.30170612      15.27542347      15.27194289      15.27432608
        15.28084262      15.29149208      15.29958875      15.30469276      15.31699640      15.34562714      15.39695346      15.46584946      15.52427350      15.58074371      15.60793905      15.62596994      15.61937740      15.63049419      15.65431634      15.68108097      15.70026456      15.71535767      15.72307868      15.71015097
        15.68015843      15.61551541      15.57145373      15.54044638      15.53126846      15.53038983      15.53416080      15.53822579      15.52690684      15.48923049      15.44742145      15.41310596      15.39999722      15.39227877      15.40258453      15.41306380      15.42473397      15.43858900      15.44098444      15.44661290
        15.45090276      15.44414128      15.43616882      15.44120428      15.44249003      15.45051216      15.46424849      15.47339132      15.48913653      15.49963566      15.51609210      15.52942396      15.53883353      15.54813757      15.54921661      15.54520362      15.53561783      15.51102852      15.47830832      15.44732006
        15.42217942      15.40722124      15.40580390      15.40915481      15.40842793      15.41275581      15.42059663      15.41920943      15.42192012      15.43928875      15.46588267      15.50705643      15.54483067      15.58543966      15.61189708      15.59806846      15.57006349      15.54352744      15.54767403      15.53204970
        15.47647103      15.46938281      15.46868423      15.45720805      15.43678143      15.42260769      15.44816065      15.44262168      15.43285161      15.41725009      15.40484177      15.39758979      15.39145417      15.38912025      15.38050341      15.36906449      15.34638981      15.31914476      15.30833428      15.30978048
        15.31517509      15.32522195      15.33278114      15.33999929      15.35028076      15.38351948      15.43138273      15.49092280      15.57808197      15.64105687      15.68993197      15.72024338      15.72727028      15.71441625      15.73469084      15.73925904      15.75514186      15.76530097      15.77419956      15.77231865
        15.74805267      15.68785179      15.62669697      15.58588678      15.56753814      15.56673769      15.56984259      15.57284874      15.57014248      15.54330963      15.50476027      15.47145228      15.44804266      15.44107630      15.44231864      15.45018537      15.45705071      15.46748414      15.46588051      15.46387749
        15.46837692      15.46938714      15.46824671      15.47187222      15.47401564      15.48064776      15.49084916      15.50090412      15.51623770      15.52670560      15.53812481      15.55008869      15.55874464      15.56648714      15.56846638      15.56742053      15.55992263      15.54912351      15.52562323      15.49956585
        15.47548098      15.45302716      15.44367557      15.44306347      15.44762825      15.45279430      15.45393859      15.45887030      15.46334168      15.47687600      15.51244070      15.55616810      15.60648863      15.65225775      15.69134726      15.69844571      15.68521293      15.65864795      15.64639368      15.64414524
        15.52571615      15.52140189      15.53319274      15.52248944      15.51084246      15.50664077      15.51701717      15.52300886      15.49921997      15.46154848      15.44026265      15.43060545      15.41885368      15.41916500      15.41256998      15.40123798      15.38147533      15.35692809      15.34589851      15.34078508
        15.34511265      15.35489954      15.36170749      15.36964692      15.38087594      15.41330462      15.46143093      15.52346406      15.60252858      15.67856895      15.75781726      15.80038275      15.82339260      15.81223856      15.79399429      15.79264235      15.80265739      15.81170928      15.81294808      15.82122069
        15.80769891      15.76074768      15.68835114      15.63488802      15.60260726      15.59749909      15.59732228      15.60121568      15.60524516      15.59103878      15.55586893      15.52614207      15.49963424      15.48837094      15.48036149      15.48240864      15.48746322      15.48760563      15.48554509      15.47929403
        15.48031553      15.48702269      15.49280991      15.49704269      15.50245465      15.50967485      15.51692349      15.52550021      15.53502835      15.54792668      15.55688336      15.56666305      15.57388571      15.57910083      15.58325196      15.58313956      15.57950200      15.57082702      15.56008289      15.53994346
        15.51705470      15.49825685      15.48290991      15.47760592      15.48262656      15.48498970      15.48838777      15.49475154      15.50229630      15.51919775      15.55966678      15.61120321      15.66767442      15.71922611      15.75429699      15.77444653      15.77515070      15.76092369      15.73779180      15.74499593
        15.57365796      15.57731995      15.58114421      15.58555877      15.58136365      15.58552116      15.57888760      15.58610497      15.56463275      15.51302477      15.47072855      15.45889641      15.44573556      15.44138047      15.44008791      15.43228048      15.41704423      15.38930443      15.37391969      15.36786041
        15.37067423      15.38023192      15.38743576      15.39360900      15.40843194      15.43776110      15.49081304      15.55390720      15.61578888      15.71585472      15.80694997      15.86611038      15.90104577      15.89629701      15.86425592      15.84768656      15.84283499      15.85549682      15.85803029      15.86482011
        15.85790344      15.82582026      15.76051572      15.68957777      15.64507665      15.62545723      15.62245705      15.62449139      15.63207153      15.63650892      15.61379061      15.57988257      15.55175980      15.52768965      15.51928542      15.51477795      15.51350341      15.50880375      15.49936743      15.48903032
        15.49287118      15.50230434      15.51165357      15.51998742      15.52906348      15.53661609      15.54194836      15.54810663      15.55428900      15.56452039      15.57258606      15.57896677      15.58624848      15.59037321      15.59468608      15.59541621      15.59452567      15.58989822      15.58353079      15.57183385
        15.55394858      15.53429007      15.52093250      15.51632582      15.51263175      15.51556911      15.52249426      15.52759221      15.53810920      15.56309083      15.60615628      15.66388452      15.72456569      15.77553478      15.80506847      15.83425924      15.84274929      15.84033222      15.82879014      15.82268922
        15.62659463      15.63269473      15.62675829      15.64319365      15.64518648      15.64731623      15.64729200      15.63362101      15.61437406      15.55743223      15.50404936      15.48219319      15.46993359      15.46079918      15.45904495      15.45448637      15.44722184      15.42381305      15.39420691      15.38398089
        15.39237093      15.40160071      15.40877577      15.41544426      15.42892672      15.46634460      15.51925976      15.57062670      15.63904087      15.72958034      15.83641241      15.92061097      15.97699016      15.99057899      15.95806064      15.92277358      15.89127013      15.89369922      15.90140356      15.90223946
        15.90624508      15.88285007      15.83585222      15.75448924      15.69241196      15.66215263      15.64797193      15.64912025      15.65657305      15.66640734      15.66856789      15.64521458      15.60914690      15.56765879      15.55587519      15.54691080      15.53693146      15.52977555      15.51208980      15.47895918
        15.50046024      15.51589795      15.53080598      15.54227090      15.55236680      15.56007184      15.56425849      15.56796498      15.57227704      15.57777455      15.58502524      15.58972276      15.59656548      15.60068901      15.60380488      15.60614410      15.60615653      15.60602670      15.60068515      15.59527097
        15.58579176      15.56964806      15.55423638      15.55101993      15.54736759      15.55068476      15.55437765      15.55888419      15.57419877      15.60203104      15.64841831      15.71184617      15.77474799      15.82249410      15.85325061      15.87761368      15.90124633      15.90459047      15.90884962      15.90236392
        15.68369108      15.68101784      15.68438918      15.69710949      15.70373812      15.70292123      15.70607172      15.68529817      15.66266770      15.59597253      15.53024328      15.50288163      15.48829699      15.47849955      15.47377883      15.47070933      15.46439549      15.45204495      15.41836469      15.38315298
        15.40965289      15.41983443      15.42735292      15.43404991      15.44918496      15.48879686      15.53738066      15.59300118      15.66651621      15.74506180      15.87244617      15.98294018      16.05477554      16.09314827      16.06651340      16.01396023      15.96835415      15.93655846      15.94217268      15.93872962
        15.94796198      15.93795719      15.90081889      15.83505137      15.74850829      15.70524566      15.67980021      15.67670847      15.68317604      15.69346691      15.70661409      15.70382108      15.67456363      15.62494713      15.58982988      15.57774113      15.56927792      15.55176655      15.52360193      15.37471066
        15.50086656      15.53457181      15.55214522      15.56337876      15.57195489      15.57851606      15.58344714      15.58421073      15.58716396      15.59040371      15.59459474      15.59982989      15.60364126      15.60891672      15.61203631      15.61559990      15.61744970      15.61773305      15.61691849      15.61444410
        15.60840365      15.60115573      15.58965191      15.58024085      15.58243609      15.58525548      15.58735683      15.59502226      15.60909756      15.63530428      15.68774644      15.75241575      15.81910448      15.86648769      15.89881719      15.91883406      15.95566161      15.97671106      15.97732708      15.98125407
        15.72956417      15.73037009      15.73998151      15.74375516      15.76281454      15.76136221      15.74790455      15.72934099      15.70320993      15.63636063      15.54848733      15.51966988      15.50249088      15.49264788      15.48709457      15.48340303      15.47749079      15.46917733      15.44965495      15.43017013
        15.43422637      15.43978327      15.44434905      15.45051798      15.47021172      15.51011525      15.56060995      15.62005583      15.69497007      15.77937014      15.91086438      16.03974673      16.12506899      16.18891832      16.18512505      16.12830025      16.05097370      15.99531699      15.98435344      15.98004037
        15.97877973      15.98149875      15.95614569      15.91112560      15.82610126      15.75585813      15.72094542      15.70944833      15.71256923      15.72386068      15.73703783      15.74127713      15.72604149      15.68493913      15.63778874      15.61596792      15.60946288      15.59515566      15.57645456      15.55259519
        15.55701822      15.56750532      15.57751536      15.58272301      15.58885810      15.59390511      15.59719663      15.59826450      15.59903249      15.60213654      15.60410389      15.60847789      15.61193889      15.61573001      15.61964764      15.62358703      15.62718452      15.62922524      15.63183546      15.63054247
        15.62845752      15.62314583      15.62087048      15.61412738      15.61458421      15.61590298      15.62126731      15.63042522      15.64125292      15.66705648      15.72180650      15.79552159      15.86382700      15.91266610      15.94547608      15.97555601      16.01251912      16.04533216      16.04861380      16.05305719
        15.76998584      15.77852938      15.78773203      15.80045614      15.81797487      15.82212901      15.79695125      15.76781138      15.72731128      15.67436539      15.58344619      15.53043017      15.51409719      15.50312491      15.49730694      15.49321254      15.48849329      15.48215332      15.46964943      15.45599945
        15.45664045      15.45814437      15.46017879      15.46856746      15.49153593      15.53575357      15.59230880      15.64715498      15.71938096      15.83359075      15.96239318      16.08616712      16.18483921      16.25412427      16.27825794      16.24560157      16.14422153      16.05563145      16.02756494      16.02360848
        16.01275399      16.00888205      15.99675489      15.96764262      15.90775727      15.81965486      15.77583473      15.74749505      15.74494516      15.75685403      15.76639532      15.77740478      15.77093097      15.73856859      15.69841577      15.66488100      15.64982739      15.64355525      15.63022199      15.62080588
        15.61589895      15.60535276      15.60350099      15.60350986      15.60452568      15.60607633      15.60801823      15.60966487      15.61000219      15.61176977      15.61352247      15.61573184      15.62053113      15.62304414      15.62735824      15.63048697      15.63518858      15.64059690      15.64396176      15.64529408
        15.64698729      15.64330375      15.64061659      15.64437372      15.64419499      15.64754674      15.65323103      15.65940660      15.67344757      15.70038241      15.75702534      15.83875261      15.90873935      15.96643209      16.00052907      16.03981238      16.07681468      16.10776342      16.12054203      16.11793484
        15.81954607      15.82629364      15.83560508      15.85644294      15.86662533      15.87411113      15.85535456      15.81777422      15.75920623      15.69678104      15.61853369      15.54374134      15.52045162      15.51117868      15.50485154      15.50077818      15.49655212      15.49223753      15.48514562      15.47479329
        15.47305016      15.47356358      15.47484154      15.48558315      15.51580091      15.56806063      15.62237341      15.67446166      15.75501111      15.86902203      15.99407128      16.12904203      16.22959068      16.29698367      16.33894526      16.31785578      16.23985018      16.11424420      16.07062683      16.06161998
        16.05023584      16.03934193      16.02775732      16.00334868      15.97460448      15.89555711      15.83443778      15.79916460      15.78213615      15.79042686      15.79783134      15.81385875      15.81237844      15.78371657      15.74606895      15.71089424      15.69554861      15.68526079      15.67610065      15.66751808
        15.65941721      15.64241881      15.62976879      15.62447355      15.62036404      15.61736115      15.61747586      15.61939762      15.61985568      15.61975123      15.62232201      15.62412683      15.62853359      15.63151148      15.63504898      15.63900075      15.64366967      15.65031927      15.65425766      15.65925458
        15.66130964      15.66239029      15.66130642      15.66718847      15.67244092      15.67866858      15.68166023      15.68987180      15.70752713      15.73285955      15.78630296      15.87615548      15.95923513      16.02159221      16.06366960      16.09806173      16.14109430      16.17369520      16.18926573      16.18519446
        15.87900383      15.88121771      15.89180435      15.90170007      15.91310897      15.91667955      15.90862775      15.87429141      15.81346358      15.72411174      15.64553680      15.56595607      15.52437694      15.51575934      15.51024019      15.50634312      15.50263783      15.49898335      15.49527095      15.48980370
        15.48597413      15.48680239      15.48987769      15.49866912      15.53654124      15.59731268      15.64598242      15.70571082      15.78817507      15.89375820      16.02527037      16.15868392      16.25813810      16.31906897      16.36427567      16.35505261      16.29717506      16.18771580      16.11343194      16.09551952
        16.08513293      16.07057619      16.05957972      16.03635267      16.01199043      15.95878295      15.88684799      15.85654201      15.82529998      15.82409665      15.83336238      15.84075106      15.84459231      15.82257799      15.78449310      15.74851351      15.73042195      15.72279102      15.71161827      15.70402981
        15.69508746      15.67412327      15.65515228      15.64267524      15.63614778      15.63154243      15.62707535      15.62827270      15.62895831      15.62833586      15.62986137      15.63268964      15.63595115      15.64042515      15.64274416      15.64823543      15.65304574      15.65872407      15.66528832      15.67058393
        15.67282493      15.67723034      15.68075248      15.68713377      15.69730179      15.70295472      15.71002030      15.72073921      15.74350203      15.76729596      15.81461946      15.90587801      16.00148120      16.07166825      16.12337872      16.16156965      16.20449269      16.23543183      16.25880438      16.26084987
        15.94862295      15.94205370      15.95008811      15.94916431      15.95694678      15.95900508      15.95201879      15.92604539      15.87589445      15.77618898      15.68145600      15.59352837      15.52929867      15.51855227      15.51319343      15.50991815      15.50667717      15.50386812      15.50183373      15.49930641
        15.49762477      15.49937518      15.50332796      15.51132422      15.54351398      15.60511803      15.66458120      15.71909601      15.79861413      15.92063170      16.06067674      16.18670805      16.28109253      16.34518497      16.38986834      16.39432415      16.34575901      16.25147810      16.16232483      16.12842643
        16.11502742      16.10189613      16.08791446      16.07258323      16.04862903      16.01282444      15.94676758      15.90419009      15.87516154      15.85764574      15.86405297      15.86515954      15.86755022      15.84947325      15.81374981      15.78014648      15.75406811      15.74942197      15.74122413      15.73099622
        15.72465413      15.70559627      15.67796939      15.66173276      15.65074717      15.64591800      15.63991361      15.63672481      15.63789391      15.63735461      15.63758379      15.64119334      15.64438286      15.64926411      15.65186749      15.65629495      15.66201215      15.66794470      15.67584111      15.67893624
        15.68330367      15.68872114      15.69656439      15.70751556      15.71919280      15.72509198      15.73600010      15.75185019      15.77689252      15.80837891      15.85701056      15.92477801      16.02867648      16.12038963      16.18275339      16.22983146      16.26157116      16.29243059      16.31609354      16.33062221
        16.02252459      16.01256837      16.00063406      16.00494902      16.00053024      15.99718559      15.99184068      15.97497551      15.93440641      15.83610247      15.72531790      15.63538651      15.54450509      15.52119138      15.51529296      15.51105469      15.50834331      15.50611032      15.50538097      15.50530627
        15.50567184      15.50850817      15.51268310      15.52635807      15.55237787      15.60210738      15.66571877      15.71533754      15.79403060      15.92524273      16.08775614      16.22898649      16.31843990      16.37814517      16.41858050      16.43169114      16.39906557      16.31879877      16.22011696      16.16348732