# File generated by Flopy version 3.6.0 on 02/10/2025 at 14:18:22.
BEGIN options
  PRINT_OPTION  summary
  COMPLEXITY  complex
END options

BEGIN linear
  LINEAR_ACCELERATION  bicgstab
END linear

