# File generated by Flopy version 3.5.0 on 03/08/2024 at 12:51:18.
BEGIN options
END options

BEGIN dimensions
  MAXBOUND  5000
END dimensions

BEGIN period  1
  1 1 1.40440011E-08
  1 2 1.34884972E-08
  1 3 1.28597443E-08
  1 4 1.28300478E-08
  1 5 1.30034580E-08
  1 6 1.26705817E-08
  1 7 1.20528498E-08
  1 8 1.18923786E-08
  1 9 1.21125539E-08
  1 10 1.18892849E-08
  1 11 1.10539242E-08
  1 12 1.04425990E-08
  1 13 1.05771983E-08
  1 14 1.08915445E-08
  1 15 1.07690327E-08
  1 16 1.05670474E-08
  1 17 1.08640427E-08
  1 18 1.12585716E-08
  1 19 1.08525633E-08
  1 20 9.67101715E-09
  1 21 8.63964369E-09
  1 22 8.16469635E-09
  1 23 7.70035288E-09
  1 24 6.95676132E-09
  1 25 6.58253758E-09
  1 26 7.08657758E-09
  1 27 7.83847209E-09
  1 28 7.91225996E-09
  1 29 7.41911445E-09
  1 30 7.14227686E-09
  1 31 7.16646069E-09
  1 32 6.86039607E-09
  1 33 6.19036728E-09
  1 34 6.02006037E-09
  1 35 6.78546829E-09
  1 36 7.75270408E-09
  1 37 8.12509196E-09
  1 38 8.15566453E-09
  1 39 8.45167472E-09
  1 40 8.76184288E-09
  1 41 8.39167146E-09
  1 42 7.54468723E-09
  1 43 7.24113245E-09
  1 44 7.86459672E-09
  1 45 8.73206547E-09
  1 46 9.35453951E-09
  1 47 1.02057298E-08
  1 48 1.17123530E-08
  1 49 1.32662348E-08
  1 50 1.40317763E-08
  1 51 1.42269227E-08
  1 52 1.47078165E-08
  1 53 1.55557053E-08
  1 54 1.60463234E-08
  1 55 1.60026223E-08
  1 56 1.61711115E-08
  1 57 1.69600857E-08
  1 58 1.77121407E-08
  1 59 1.77842505E-08
  1 60 1.76125603E-08
  1 61 1.79554148E-08
  1 62 1.86152432E-08
  1 63 1.88187634E-08
  1 64 1.85849602E-08
  1 65 1.87195634E-08
  1 66 1.94391634E-08
  1 67 1.99881998E-08
  1 68 1.99159364E-08
  1 69 1.98335185E-08
  1 70 2.03558091E-08
  1 71 2.10367489E-08
  1 72 2.11138598E-08
  1 73 2.07787345E-08
  1 74 2.07982708E-08
  1 75 2.11511917E-08
  1 76 2.10409231E-08
  1 77 2.02850731E-08
  1 78 1.97093878E-08
  1 79 1.98606420E-08
  1 80 2.02139860E-08
  1 81 2.01891648E-08
  1 82 2.01897362E-08
  1 83 2.08570728E-08
  1 84 2.18204911E-08
  1 85 2.21200610E-08
  1 86 2.16337538E-08
  1 87 2.11245108E-08
  1 88 2.08747066E-08
  1 89 2.02669407E-08
  1 90 1.90107128E-08
  1 91 1.78616141E-08
  1 92 1.75350711E-08
  1 93 1.76189006E-08
  1 94 1.73169145E-08
  1 95 1.67526468E-08
  1 96 1.66357810E-08
  1 97 1.69207340E-08
  1 98 1.68135443E-08
  1 99 1.61497569E-08
  1 100 1.57807819E-08
  1 101 1.28399912E-08
  1 102 1.24067352E-08
  1 103 1.24556442E-08
  1 104 1.22531050E-08
  1 105 1.15914195E-08
  1 106 1.12021712E-08
  1 107 1.15086923E-08
  1 108 1.18673340E-08
  1 109 1.16186259E-08
  1 110 1.11651805E-08
  1 111 1.12386593E-08
  1 112 1.16128377E-08
  1 113 1.14636896E-08
  1 114 1.07549142E-08
  1 115 1.02761098E-08
  1 116 1.02785544E-08
  1 117 1.00609985E-08
  1 118 9.22411226E-09
  1 119 8.43906400E-09
  1 120 8.39393691E-09
  1 121 8.69531019E-09
  1 122 8.57890651E-09
  1 123 8.19345350E-09
  1 124 8.26004150E-09
  1 125 8.71693483E-09
  1 126 8.71428642E-09
  1 127 8.00959317E-09
  1 128 7.39796934E-09
  1 129 7.43944059E-09
  1 130 7.63644474E-09
  1 131 7.42288296E-09
  1 132 7.21725908E-09
  1 133 7.69898207E-09
  1 134 8.54412185E-09
  1 135 8.81832772E-09
  1 136 8.40929780E-09
  1 137 8.10598177E-09
  1 138 8.23657964E-09
  1 139 8.21500270E-09
  1 140 7.74754375E-09
  1 141 7.57162489E-09
  1 142 8.38615247E-09
  1 143 9.74344177E-09
  1 144 1.07702915E-08
  1 145 1.14928345E-08
  1 146 1.25446242E-08
  1 147 1.38326587E-08
  1 148 1.45213237E-08
  1 149 1.44092339E-08
  1 150 1.43451124E-08
  1 151 1.49344712E-08
  1 152 1.56904790E-08
  1 153 1.60148639E-08
  1 154 1.62755450E-08
  1 155 1.71177414E-08
  1 156 1.82143809E-08
  1 157 1.86534724E-08
  1 158 1.83635898E-08
  1 159 1.81852103E-08
  1 160 1.84854367E-08
  1 161 1.86725235E-08
  1 162 1.83926931E-08
  1 163 1.82944235E-08
  1 164 1.89963066E-08
  1 165 2.00023625E-08
  1 166 2.04346860E-08
  1 167 2.03686082E-08
  1 168 2.05382154E-08
  1 169 2.09696424E-08
  1 170 2.09160622E-08
  1 171 2.02060962E-08
  1 172 1.96662122E-08
  1 173 1.98494688E-08
  1 174 2.02071119E-08
  1 175 2.00947777E-08
  1 176 1.98811952E-08
  1 177 2.02712720E-08
  1 178 2.10277671E-08
  1 179 2.13064182E-08
  1 180 2.10438900E-08
  1 181 2.10208303E-08
  1 182 2.14854721E-08
  1 183 2.16903178E-08
  1 184 2.11352853E-08
  1 185 2.03942142E-08
  1 186 2.01222253E-08
  1 187 1.99590728E-08
  1 188 1.92123421E-08
  1 189 1.81384596E-08
  1 190 1.76019855E-08
  1 191 1.76698272E-08
  1 192 1.75303553E-08
  1 193 1.68727905E-08
  1 194 1.63785260E-08
  1 195 1.65127458E-08
  1 196 1.67200053E-08
  1 197 1.64210398E-08
  1 198 1.60955933E-08
  1 199 1.65635154E-08
  1 200 1.76507077E-08
  1 201 1.15950378E-08
  1 202 1.16790864E-08
  1 203 1.14191634E-08
  1 204 1.11570887E-08
  1 205 1.15328232E-08
  1 206 1.22260515E-08
  1 207 1.23131434E-08
  1 208 1.16933877E-08
  1 209 1.11889358E-08
  1 210 1.11643519E-08
  1 211 1.10135151E-08
  1 212 1.03475975E-08
  1 213 9.79270775E-09
  1 214 9.98641893E-09
  1 215 1.04761498E-08
  1 216 1.04201660E-08
  1 217 9.92356611E-09
  1 218 9.76033793E-09
  1 219 9.99106009E-09
  1 220 9.85966056E-09
  1 221 9.13786499E-09
  1 222 8.58847673E-09
  1 223 8.72550120E-09
  1 224 8.97666833E-09
  1 225 8.67796075E-09
  1 226 8.20214951E-09
  1 227 8.30040677E-09
  1 228 8.79784000E-09
  1 229 8.88320948E-09
  1 230 8.49068185E-09
  1 231 8.39487438E-09
  1 232 8.85019837E-09
  1 233 9.11175107E-09
  1 234 8.67555945E-09
  1 235 8.13480404E-09
  1 236 8.20326854E-09
  1 237 8.58471318E-09
  1 238 8.60989310E-09
  1 239 8.51340656E-09
  1 240 9.11772053E-09
  1 241 1.04310062E-08
  1 242 1.15511419E-08
  1 243 1.20596071E-08
  1 244 1.25610761E-08
  1 245 1.35004585E-08
  1 246 1.43327460E-08
  1 247 1.44878438E-08
  1 248 1.44581736E-08
  1 249 1.50949186E-08
  1 250 1.62568237E-08
  1 251 1.70766123E-08
  1 252 1.73689079E-08
  1 253 1.77880348E-08
  1 254 1.85223445E-08
  1 255 1.88350635E-08
  1 256 1.82972809E-08
  1 257 1.76211365E-08
  1 258 1.76400504E-08
  1 259 1.81202450E-08
  1 260 1.83599691E-08
  1 261 1.84801365E-08
  1 262 1.91623648E-08
  1 263 2.03017790E-08
  1 264 2.09456478E-08
  1 265 2.07052914E-08
  1 266 2.02941373E-08
  1 267 2.03084530E-08
  1 268 2.03329422E-08
  1 269 1.98540534E-08
  1 270 1.93423506E-08
  1 271 1.95806398E-08
  1 272 2.03514482E-08
  1 273 2.07369283E-08
  1 274 2.05565745E-08
  1 275 2.05362432E-08
  1 276 2.09720561E-08
  1 277 2.12078016E-08
  1 278 2.08151678E-08
  1 279 2.04173363E-08
  1 280 2.06953072E-08
  1 281 2.12403411E-08
  1 282 2.12046249E-08
  1 283 2.06498936E-08
  1 284 2.03209315E-08
  1 285 2.02791105E-08
  1 286 1.97747395E-08
  1 287 1.85888035E-08
  1 288 1.75279507E-08
  1 289 1.71885767E-08
  1 290 1.70685270E-08
  1 291 1.65194385E-08
  1 292 1.58971684E-08
  1 293 1.59487271E-08
  1 294 1.65098366E-08
  1 295 1.67685124E-08
  1 296 1.66531843E-08
  1 297 1.69593208E-08
  1 298 1.79788725E-08
  1 299 1.89619920E-08
  1 300 1.93240801E-08
  1 301 1.18584737E-08
  1 302 1.18477837E-08
  1 303 1.20122610E-08
  1 304 1.25294530E-08
  1 305 1.26523793E-08
  1 306 1.19222809E-08
  1 307 1.10213129E-08
  1 308 1.07735225E-08
  1 309 1.09413298E-08
  1 310 1.08043449E-08
  1 311 1.04688333E-08
  1 312 1.06417760E-08
  1 313 1.12803638E-08
  1 314 1.14896491E-08
  1 315 1.09121131E-08
  1 316 1.02800271E-08
  1 317 1.02026343E-08
  1 318 1.02468166E-08
  1 319 9.83666747E-09
  1 320 9.36934134E-09
  1 321 9.58726113E-09
  1 322 1.02664659E-08
  1 323 1.04879899E-08
  1 324 1.00708318E-08
  1 325 9.76138029E-09
  1 326 9.89452729E-09
  1 327 9.83673196E-09
  1 328 9.15255165E-09
  1 329 8.46129038E-09
  1 330 8.47667598E-09
  1 331 8.84792087E-09
  1 332 8.78075927E-09
  1 333 8.38531035E-09
  1 334 8.46334569E-09
  1 335 9.12260470E-09
  1 336 9.60522855E-09
  1 337 9.61932847E-09
  1 338 9.87226777E-09
  1 339 1.08689501E-08
  1 340 1.20202691E-08
  1 341 1.25901637E-08
  1 342 1.28734592E-08
  1 343 1.36106239E-08
  1 344 1.46670939E-08
  1 345 1.52538151E-08
  1 346 1.53057858E-08
  1 347 1.56346216E-08
  1 348 1.65667467E-08
  1 349 1.73810235E-08
  1 350 1.75048931E-08
  1 351 1.74324605E-08
  1 352 1.78189728E-08
  1 353 1.83352180E-08
  1 354 1.82656867E-08
  1 355 1.78232924E-08
  1 356 1.79017335E-08
  1 357 1.86498196E-08
  1 358 1.92711750E-08
  1 359 1.93673795E-08
  1 360 1.95231589E-08
  1 361 2.01599846E-08
  1 362 2.06721236E-08
  1 363 2.03767024E-08
  1 364 1.96824481E-08
  1 365 1.94771094E-08
  1 366 1.97556585E-08
  1 367 1.97907487E-08
  1 368 1.94985781E-08
  1 369 1.96196166E-08
  1 370 2.03955874E-08
  1 371 2.10352283E-08
  1 372 2.09324121E-08
  1 373 2.06006820E-08
  1 374 2.07589121E-08
  1 375 2.11426940E-08
  1 376 2.10535406E-08
  1 377 2.06559822E-08
  1 378 2.07472352E-08
  1 379 2.13609174E-08
  1 380 2.15979737E-08
  1 381 2.10087866E-08
  1 382 2.02143500E-08
  1 383 1.97613672E-08
  1 384 1.92136813E-08
  1 385 1.80411367E-08
  1 386 1.67466075E-08
  1 387 1.62367622E-08
  1 388 1.64483333E-08
  1 389 1.65369820E-08
  1 390 1.62923259E-08
  1 391 1.63792178E-08
  1 392 1.70452038E-08
  1 393 1.75699170E-08
  1 394 1.74432135E-08
  1 395 1.72623831E-08
  1 396 1.77855864E-08
  1 397 1.87167922E-08
  1 398 1.92557517E-08
  1 399 1.94398177E-08
  1 400 1.99794892E-08
  1 401 1.19857603E-08
  1 402 1.20778496E-08
  1 403 1.22844885E-08
  1 404 1.18939470E-08
  1 405 1.11129173E-08
  1 406 1.08461082E-08
  1 407 1.12694147E-08
  1 408 1.15997006E-08
  1 409 1.14311317E-08
  1 410 1.13499947E-08
  1 411 1.18040323E-08
  1 412 1.22111298E-08
  1 413 1.18808474E-08
  1 414 1.11961140E-08
  1 415 1.10277314E-08
  1 416 1.13556868E-08
  1 417 1.14137329E-08
  1 418 1.10625853E-08
  1 419 1.10094095E-08
  1 420 1.14996286E-08
  1 421 1.17568427E-08
  1 422 1.11830804E-08
  1 423 1.03134359E-08
  1 424 9.92046126E-09
  1 425 9.80337505E-09
  1 426 9.30421846E-09
  1 427 8.61072679E-09
  1 428 8.55548235E-09
  1 429 9.21861627E-09
  1 430 9.72602906E-09
  1 431 9.62005200E-09
  1 432 9.50628201E-09
  1 433 9.92341425E-09
  1 434 1.04101269E-08
  1 435 1.03717242E-08
  1 436 1.02289741E-08
  1 437 1.08255685E-08
  1 438 1.20551733E-08
  1 439 1.30276229E-08
  1 440 1.34891577E-08
  1 441 1.40959524E-08
  1 442 1.51272897E-08
  1 443 1.58994177E-08
  1 444 1.59179625E-08
  1 445 1.57916411E-08
  1 446 1.63061404E-08
  1 447 1.71927635E-08
  1 448 1.76529301E-08
  1 449 1.77126606E-08
  1 450 1.80921266E-08
  1 451 1.88516840E-08
  1 452 1.91878898E-08
  1 453 1.87738024E-08
  1 454 1.83639562E-08
  1 455 1.86111812E-08
  1 456 1.90807976E-08
  1 457 1.90998690E-08
  1 458 1.89454666E-08
  1 459 1.93237813E-08
  1 460 2.00557341E-08
  1 461 2.02688954E-08
  1 462 1.98168897E-08
  1 463 1.95254866E-08
  1 464 1.98449067E-08
  1 465 2.01887016E-08
  1 466 2.00440214E-08
  1 467 1.99038879E-08
  1 468 2.04001574E-08
  1 469 2.11337107E-08
  1 470 2.12460010E-08
  1 471 2.08018243E-08
  1 472 2.06510851E-08
  1 473 2.10158931E-08
  1 474 2.12003619E-08
  1 475 2.08715553E-08
  1 476 2.06640574E-08
  1 477 2.10420674E-08
  1 478 2.13777943E-08
  1 479 2.08713191E-08
  1 480 1.98003950E-08
  1 481 1.90165611E-08
  1 482 1.85782794E-08
  1 483 1.78452850E-08
  1 484 1.68119812E-08
  1 485 1.63147262E-08
  1 486 1.66911788E-08
  1 487 1.71636753E-08
  1 488 1.70288011E-08
  1 489 1.66807906E-08
  1 490 1.67963199E-08
  1 491 1.71414061E-08
  1 492 1.70628044E-08
  1 493 1.67835618E-08
  1 494 1.72032892E-08
  1 495 1.84587776E-08
  1 496 1.96539315E-08
  1 497 2.02174501E-08
  1 498 2.06149541E-08
  1 499 2.12887610E-08
  1 500 2.17406627E-08
  1 501 1.26971666E-08
  1 502 1.28636445E-08
  1 503 1.23048143E-08
  1 504 1.17715086E-08
  1 505 1.19240185E-08
  1 506 1.23251628E-08
  1 507 1.22722655E-08
  1 508 1.20109757E-08
  1 509 1.22510743E-08
  1 510 1.28461096E-08
  1 511 1.29482181E-08
  1 512 1.24148110E-08
  1 513 1.20731414E-08
  1 514 1.23745688E-08
  1 515 1.27053890E-08
  1 516 1.24880659E-08
  1 517 1.21520983E-08
  1 518 1.23086643E-08
  1 519 1.25770003E-08
  1 520 1.21291607E-08
  1 521 1.10721927E-08
  1 522 1.03257993E-08
  1 523 1.01938262E-08
  1 524 1.00304848E-08
  1 525 9.50693067E-09
  1 526 9.24895801E-09
  1 527 9.72847662E-09
  1 528 1.03303814E-08
  1 529 1.02533250E-08
  1 530 9.77241815E-09
  1 531 9.75434169E-09
  1 532 1.02698094E-08
  1 533 1.06461757E-08
  1 534 1.07970684E-08
  1 535 1.14688950E-08
  1 536 1.29273309E-08
  1 537 1.43321537E-08
  1 538 1.49235870E-08
  1 539 1.50742076E-08
  1 540 1.54936119E-08
  1 541 1.60064042E-08
  1 542 1.59980970E-08
  1 543 1.57052254E-08
  1 544 1.60424133E-08
  1 545 1.71688460E-08
  1 546 1.81967314E-08
  1 547 1.85476255E-08
  1 548 1.86964665E-08
  1 549 1.91263838E-08
  1 550 1.93790951E-08
  1 551 1.88788694E-08
  1 552 1.81044093E-08
  1 553 1.80288978E-08
  1 554 1.86883022E-08
  1 555 1.92429684E-08
  1 556 1.93828433E-08
  1 557 1.96851871E-08
  1 558 2.03834220E-08
  1 559 2.07541685E-08
  1 560 2.02554831E-08
  1 561 1.95009474E-08
  1 562 1.93772199E-08
  1 563 1.97483475E-08
  1 564 1.98808175E-08
  1 565 1.97906030E-08
  1 566 2.01767138E-08
  1 567 2.10805722E-08
  1 568 2.16325520E-08
  1 569 2.13921209E-08
  1 570 2.10345140E-08
  1 571 2.12165711E-08
  1 572 2.15348096E-08
  1 573 2.13066505E-08
  1 574 2.07830018E-08
  1 575 2.06884198E-08
  1 576 2.08910886E-08
  1 577 2.05284561E-08
  1 578 1.94287389E-08
  1 579 1.84305707E-08
  1 580 1.80570294E-08
  1 581 1.77834124E-08
  1 582 1.70961969E-08
  1 583 1.64711136E-08
  1 584 1.65636294E-08
  1 585 1.70102300E-08
  1 586 1.69420650E-08
  1 587 1.63917443E-08
  1 588 1.62295173E-08
  1 589 1.67498846E-08
  1 590 1.72993660E-08
  1 591 1.75191030E-08
  1 592 1.80027930E-08
  1 593 1.91996670E-08
  1 594 2.04496137E-08
  1 595 2.08616742E-08
  1 596 2.06179576E-08
  1 597 2.05530352E-08
  1 598 2.07779933E-08
  1 599 2.06970678E-08
  1 600 2.03190759E-08
  1 601 1.28428998E-08
  1 602 1.19319656E-08
  1 603 1.17483115E-08
  1 604 1.23333130E-08
  1 605 1.28392695E-08
  1 606 1.29408228E-08
  1 607 1.32244904E-08
  1 608 1.39609019E-08
  1 609 1.44500817E-08
  1 610 1.41260641E-08
  1 611 1.35455980E-08
  1 612 1.35356715E-08
  1 613 1.38994070E-08
  1 614 1.38344263E-08
  1 615 1.33078260E-08
  1 616 1.30337503E-08
  1 617 1.31341089E-08
  1 618 1.28392041E-08
  1 619 1.17926924E-08
  1 620 1.07421843E-08
  1 621 1.04093740E-08
  1 622 1.04239972E-08
  1 623 1.00891068E-08
  1 624 9.62430007E-09
  1 625 9.75047905E-09
  1 626 1.03605023E-08
  1 627 1.06087778E-08
  1 628 1.03160459E-08
  1 629 1.03031110E-08
  1 630 1.10650984E-08
  1 631 1.20114297E-08
  1 632 1.25172801E-08
  1 633 1.29445046E-08
  1 634 1.38810160E-08
  1 635 1.49448196E-08
  1 636 1.52729683E-08
  1 637 1.49259703E-08
  1 638 1.48374332E-08
  1 639 1.53828630E-08
  1 640 1.59602260E-08
  1 641 1.62133643E-08
  1 642 1.67201585E-08
  1 643 1.79255218E-08
  1 644 1.91671270E-08
  1 645 1.95365901E-08
  1 646 1.91993312E-08
  1 647 1.89992552E-08
  1 648 1.90696283E-08
  1 649 1.88123622E-08
  1 650 1.82054897E-08
  1 651 1.80937994E-08
  1 652 1.88728086E-08
  1 653 1.97776009E-08
  1 654 2.00144872E-08
  1 655 1.98695872E-08
  1 656 1.99945170E-08
  1 657 2.01823064E-08
  1 658 1.97746717E-08
  1 659 1.89833955E-08
  1 660 1.87881594E-08
  1 661 1.94888556E-08
  1 662 2.03091330E-08
  1 663 2.06886398E-08
  1 664 2.10631933E-08
  1 665 2.18593081E-08
  1 666 2.25146365E-08
  1 667 2.22822115E-08
  1 668 2.14814147E-08
  1 669 2.10440423E-08
  1 670 2.10850915E-08
  1 671 2.08799118E-08
  1 672 2.02252404E-08
  1 673 1.98179392E-08
  1 674 2.00071037E-08
  1 675 2.00952798E-08
  1 676 1.94366398E-08
  1 677 1.84918633E-08
  1 678 1.80510781E-08
  1 679 1.79499401E-08
  1 680 1.74526863E-08
  1 681 1.66117620E-08
  1 682 1.62475000E-08
  1 683 1.65740514E-08
  1 684 1.68353001E-08
  1 685 1.65914978E-08
  1 686 1.64648672E-08
  1 687 1.70693881E-08
  1 688 1.79510158E-08
  1 689 1.83403530E-08
  1 690 1.84161819E-08
  1 691 1.89154668E-08
  1 692 1.97767975E-08
  1 693 2.01728280E-08
  1 694 1.99055032E-08
  1 695 1.97873391E-08
  1 696 2.03469178E-08
  1 697 2.10459189E-08
  1 698 2.13037870E-08
  1 699 2.15296414E-08
  1 700 2.23689079E-08
  1 701 1.24757756E-08
  1 702 1.33829446E-08
  1 703 1.44558481E-08
  1 704 1.48796059E-08
  1 705 1.49155474E-08
  1 706 1.52075549E-08
  1 707 1.55396952E-08
  1 708 1.52126891E-08
  1 709 1.43754399E-08
  1 710 1.39649524E-08
  1 711 1.42754074E-08
  1 712 1.45414150E-08
  1 713 1.42208535E-08
  1 714 1.37967872E-08
  1 715 1.37805135E-08
  1 716 1.36961175E-08
  1 717 1.28450656E-08
  1 718 1.15631972E-08
  1 719 1.07975786E-08
  1 720 1.06799205E-08
  1 721 1.04824693E-08
  1 722 9.98321982E-09
  1 723 9.87797966E-09
  1 724 1.05417547E-08
  1 725 1.12945016E-08
  1 726 1.14684199E-08
  1 727 1.14763324E-08
  1 728 1.20605751E-08
  1 729 1.30032005E-08
  1 730 1.34920428E-08
  1 731 1.35000153E-08
  1 732 1.38086074E-08
  1 733 1.46438993E-08
  1 734 1.52794674E-08
  1 735 1.52998040E-08
  1 736 1.53583925E-08
  1 737 1.61147716E-08
  1 738 1.71454391E-08
  1 739 1.76681638E-08
  1 740 1.78235524E-08
  1 741 1.83249766E-08
  1 742 1.91084269E-08
  1 743 1.93416986E-08
  1 744 1.88182153E-08
  1 745 1.83660965E-08
  1 746 1.85602126E-08
  1 747 1.89044539E-08
  1 748 1.88285423E-08
  1 749 1.87369763E-08
  1 750 1.92834679E-08
  1 751 2.01242390E-08
  1 752 2.03333528E-08
  1 753 1.98346561E-08
  1 754 1.94586640E-08
  1 755 1.95627281E-08
  1 756 1.95735141E-08
  1 757 1.91872013E-08
  1 758 1.90943910E-08
  1 759 1.99117501E-08
  1 760 2.11044543E-08
  1 761 2.17449420E-08
  1 762 2.18529433E-08
  1 763 2.20979089E-08
  1 764 2.24583284E-08
  1 765 2.21971279E-08
  1 766 2.12110176E-08
  1 767 2.04058206E-08
  1 768 2.03820615E-08
  1 769 2.06002357E-08
  1 770 2.03906228E-08
  1 771 2.00509428E-08
  1 772 2.01736395E-08
  1 773 2.04195899E-08
  1 774 1.99206134E-08
  1 775 1.86885323E-08
  1 776 1.76472468E-08
  1 777 1.72192957E-08
  1 778 1.68370390E-08
  1 779 1.61434701E-08
  1 780 1.57567283E-08
  1 781 1.62487027E-08
  1 782 1.70894936E-08
  1 783 1.74041348E-08
  1 784 1.73012839E-08
  1 785 1.75518633E-08
  1 786 1.82044394E-08
  1 787 1.85169034E-08
  1 788 1.82990048E-08
  1 789 1.83251864E-08
  1 790 1.90714669E-08
  1 791 1.99181381E-08
  1 792 2.01827833E-08
  1 793 2.02289152E-08
  1 794 2.07750976E-08
  1 795 2.16119488E-08
  1 796 2.19379467E-08
  1 797 2.17354476E-08
  1 798 2.18151870E-08
  1 799 2.24390663E-08
  1 800 2.28750687E-08
  1 801 1.56270111E-08
  1 802 1.60907112E-08
  1 803 1.58138773E-08
  1 804 1.55898248E-08
  1 805 1.57666182E-08
  1 806 1.57597458E-08
  1 807 1.52365249E-08
  1 808 1.48652439E-08
  1 809 1.52683341E-08
  1 810 1.59274806E-08
  1 811 1.59193175E-08
  1 812 1.52712835E-08
  1 813 1.46960606E-08
  1 814 1.42454009E-08
  1 815 1.32481918E-08
  1 816 1.16459343E-08
  1 817 1.03895900E-08
  1 818 1.01331261E-08
  1 819 1.03702018E-08
  1 820 1.04230241E-08
  1 821 1.05622748E-08
  1 822 1.13643254E-08
  1 823 1.24745634E-08
  1 824 1.29793844E-08
  1 825 1.28181165E-08
  1 826 1.28478556E-08
  1 827 1.34404962E-08
  1 828 1.39725952E-08
  1 829 1.40227025E-08
  1 830 1.41716208E-08
  1 831 1.50081599E-08
  1 832 1.60522387E-08
  1 833 1.64747374E-08
  1 834 1.64228299E-08
  1 835 1.67132269E-08
  1 836 1.74329781E-08
  1 837 1.78365886E-08
  1 838 1.76889718E-08
  1 839 1.77214422E-08
  1 840 1.83983388E-08
  1 841 1.91053887E-08
  1 842 1.91639186E-08
  1 843 1.89525172E-08
  1 844 1.92305260E-08
  1 845 1.98294957E-08
  1 846 1.99495308E-08
  1 847 1.95385290E-08
  1 848 1.93779844E-08
  1 849 1.97275386E-08
  1 850 1.98652753E-08
  1 851 1.93337723E-08
  1 852 1.87749719E-08
  1 853 1.89270947E-08
  1 854 1.94857517E-08
  1 855 1.97439974E-08
  1 856 1.98677959E-08
  1 857 2.05836697E-08
  1 858 2.18041970E-08
  1 859 2.25730047E-08
  1 860 2.24787924E-08
  1 861 2.21821130E-08
  1 862 2.22085748E-08
  1 863 2.21013345E-08
  1 864 2.13660540E-08
  1 865 2.05299482E-08
  1 866 2.04227536E-08
  1 867 2.08457219E-08
  1 868 2.08790100E-08
  1 869 2.03165930E-08
  1 870 1.98273837E-08
  1 871 1.96463538E-08
  1 872 1.91108993E-08
  1 873 1.78723299E-08
  1 874 1.66900446E-08
  1 875 1.63857426E-08
  1 876 1.66657868E-08
  1 877 1.67530026E-08
  1 878 1.67024938E-08
  1 879 1.71541894E-08
  1 880 1.80024326E-08
  1 881 1.83462224E-08
  1 882 1.78844542E-08
  1 883 1.74113030E-08
  1 884 1.75621018E-08
  1 885 1.79139709E-08
  1 886 1.79100635E-08
  1 887 1.79500219E-08
  1 888 1.87305961E-08
  1 889 1.99618434E-08
  1 890 2.06954087E-08
  1 891 2.07624955E-08
  1 892 2.09181047E-08
  1 893 2.14855190E-08
  1 894 2.18328085E-08
  1 895 2.15537189E-08
  1 896 2.12828880E-08
  1 897 2.17009008E-08
  1 898 2.24041953E-08
  1 899 2.25719177E-08
  1 900 2.23049847E-08
  1 901 1.66628946E-08
  1 902 1.61942285E-08
  1 903 1.62910498E-08
  1 904 1.66724156E-08
  1 905 1.66279563E-08
  1 906 1.63002708E-08
  1 907 1.64081642E-08
  1 908 1.68814580E-08
  1 909 1.67872591E-08
  1 910 1.57449714E-08
  1 911 1.44813574E-08
  1 912 1.36281561E-08
  1 913 1.28319874E-08
  1 914 1.16583968E-08
  1 915 1.06562715E-08
  1 916 1.06625105E-08
  1 917 1.14658043E-08
  1 918 1.20951237E-08
  1 919 1.22698696E-08
  1 920 1.26023491E-08
  1 921 1.32999683E-08
  1 922 1.36707037E-08
  1 923 1.33150939E-08
  1 924 1.29427588E-08
  1 925 1.33508413E-08
  1 926 1.42339817E-08
  1 927 1.47962807E-08
  1 928 1.50834977E-08
  1 929 1.57664015E-08
  1 930 1.68011581E-08
  1 931 1.73350029E-08
  1 932 1.70797432E-08
  1 933 1.68260897E-08
  1 934 1.72031204E-08
  1 935 1.77614695E-08
  1 936 1.78891105E-08
  1 937 1.79359268E-08
  1 938 1.85936128E-08
  1 939 1.96042737E-08
  1 940 2.00513595E-08
  1 941 1.97866034E-08
  1 942 1.95923944E-08
  1 943 1.98254573E-08
  1 944 1.98643273E-08
  1 945 1.92827816E-08
  1 946 1.87022370E-08
  1 947 1.88303086E-08
  1 948 1.93160573E-08
  1 949 1.93827098E-08
  1 950 1.91625363E-08
  1 951 1.94576748E-08
  1 952 2.03446345E-08
  1 953 2.10146344E-08
  1 954 2.11173142E-08
  1 955 2.12983390E-08
  1 956 2.20106691E-08
  1 957 2.26495411E-08
  1 958 2.25144392E-08
  1 959 2.19699825E-08
  1 960 2.18284572E-08
  1 961 2.20106414E-08
  1 962 2.17626912E-08
  1 963 2.10284373E-08
  1 964 2.05956414E-08
  1 965 2.07485022E-08
  1 966 2.07390328E-08
  1 967 2.00054664E-08
  1 968 1.90822849E-08
  1 969 1.86738145E-08
  1 970 1.84971470E-08
  1 971 1.78725526E-08
  1 972 1.70207019E-08
  1 973 1.68007094E-08
  1 974 1.72978635E-08
  1 975 1.76591803E-08
  1 976 1.74624013E-08
  1 977 1.73020780E-08
  1 978 1.76359446E-08
  1 979 1.79181070E-08
  1 980 1.75368482E-08
  1 981 1.69517755E-08
  1 982 1.70521776E-08
  1 983 1.77861626E-08
  1 984 1.83555307E-08
  1 985 1.86013468E-08
  1 986 1.91928169E-08
  1 987 2.03175734E-08
  1 988 2.11675065E-08
  1 989 2.11605716E-08
  1 990 2.08528161E-08
  1 991 2.09994116E-08
  1 992 2.13630137E-08
  1 993 2.12715137E-08
  1 994 2.09132867E-08
  1 995 2.10988284E-08
  1 996 2.18700217E-08
  1 997 2.23463056E-08
  1 998 2.21062013E-08
  1 999 2.17868884E-08
  1 1000 2.19226046E-08
  1 1001 1.70593957E-08
  1 1002 1.76891159E-08
  1 1003 1.80079357E-08
  1 1004 1.76288890E-08
  1 1005 1.71751615E-08
  1 1006 1.71204823E-08
  1 1007 1.69078091E-08
  1 1008 1.58876317E-08
  1 1009 1.44875040E-08
  1 1010 1.36081710E-08
  1 1011 1.32589200E-08
  1 1012 1.27309272E-08
  1 1013 1.19645459E-08
  1 1014 1.17288891E-08
  1 1015 1.22906226E-08
  1 1016 1.28668162E-08
  1 1017 1.28358977E-08
  1 1018 1.26773814E-08
  1 1019 1.30704424E-08
  1 1020 1.37179997E-08
  1 1021 1.39064108E-08
  1 1022 1.38108655E-08
  1 1023 1.42655776E-08
  1 1024 1.53539780E-08
  1 1025 1.62163529E-08
  1 1026 1.64124020E-08
  1 1027 1.65357784E-08
  1 1028 1.70742764E-08
  1 1029 1.75143626E-08
  1 1030 1.72505356E-08
  1 1031 1.67362396E-08
  1 1032 1.68695619E-08
  1 1033 1.76144473E-08
  1 1034 1.81672643E-08
  1 1035 1.83458541E-08
  1 1036 1.88121245E-08
  1 1037 1.97721692E-08
  1 1038 2.04332120E-08
  1 1039 2.02076127E-08
  1 1040 1.96478752E-08
  1 1041 1.95310547E-08
  1 1042 1.96504010E-08
  1 1043 1.93453119E-08
  1 1044 1.88059831E-08
  1 1045 1.88654737E-08
  1 1046 1.96065436E-08
  1 1047 2.01727519E-08
  1 1048 2.01364162E-08
  1 1049 2.01224175E-08
  1 1050 2.06608353E-08
  1 1051 2.12600889E-08
  1 1052 2.12874957E-08
  1 1053 2.11205194E-08
  1 1054 2.15547125E-08
  1 1055 2.24468936E-08
  1 1056 2.29023063E-08
  1 1057 2.26942379E-08
  1 1058 2.25156303E-08
  1 1059 2.26764783E-08
  1 1060 2.25200819E-08
  1 1061 2.15781701E-08
  1 1062 2.04758568E-08
  1 1063 2.00021031E-08
  1 1064 1.98952300E-08
  1 1065 1.93870888E-08
  1 1066 1.85539221E-08
  1 1067 1.81642456E-08
  1 1068 1.83115170E-08
  1 1069 1.82103873E-08
  1 1070 1.75323277E-08
  1 1071 1.69976958E-08
  1 1072 1.71942887E-08
  1 1073 1.76189034E-08
  1 1074 1.75560998E-08
  1 1075 1.72729348E-08
  1 1076 1.74892176E-08
  1 1077 1.80597736E-08
  1 1078 1.81647053E-08
  1 1079 1.77101593E-08
  1 1080 1.75447494E-08
  1 1081 1.81004771E-08
  1 1082 1.87481527E-08
  1 1083 1.89284815E-08
  1 1084 1.90907137E-08
  1 1085 1.98292868E-08
  1 1086 2.07288688E-08
  1 1087 2.09473774E-08
  1 1088 2.05859418E-08
  1 1089 2.05240340E-08
  1 1090 2.09955899E-08
  1 1091 2.13083465E-08
  1 1092 2.11321015E-08
  1 1093 2.10987224E-08
  1 1094 2.16653297E-08
  1 1095 2.22086566E-08
  1 1096 2.19549365E-08
  1 1097 2.12147836E-08
  1 1098 2.08548123E-08
  1 1099 2.09239323E-08
  1 1100 2.07570416E-08
  1 1101 1.88313902E-08
  1 1102 1.81884804E-08
  1 1103 1.71877576E-08
  1 1104 1.66704342E-08
  1 1105 1.65706785E-08
  1 1106 1.60689551E-08
  1 1107 1.50040493E-08
  1 1108 1.41449481E-08
  1 1109 1.38849774E-08
  1 1110 1.36177576E-08
  1 1111 1.28668590E-08
  1 1112 1.22130408E-08
  1 1113 1.23956356E-08
  1 1114 1.30943215E-08
  1 1115 1.34593357E-08
  1 1116 1.34836174E-08
  1 1117 1.38898982E-08
  1 1118 1.47652417E-08
  1 1119 1.53211395E-08
  1 1120 1.52111988E-08
  1 1121 1.51442221E-08
  1 1122 1.57175499E-08
  1 1123 1.64377049E-08
  1 1124 1.65807118E-08
  1 1125 1.64093266E-08
  1 1126 1.66751218E-08
  1 1127 1.72894874E-08
  1 1128 1.74730146E-08
  1 1129 1.71423303E-08
  1 1130 1.71461635E-08
  1 1131 1.79111367E-08
  1 1132 1.87730432E-08
  1 1133 1.91025332E-08
  1 1134 1.92840930E-08
  1 1135 1.98934653E-08
  1 1136 2.05362347E-08
  1 1137 2.04013883E-08
  1 1138 1.96291414E-08
  1 1139 1.91619084E-08
  1 1140 1.93062830E-08
  1 1141 1.94114417E-08
  1 1142 1.91455252E-08
  1 1143 1.91293170E-08
  1 1144 1.98266368E-08
  1 1145 2.06233164E-08
  1 1146 2.07343516E-08
  1 1147 2.04498165E-08
  1 1148 2.06263897E-08
  1 1149 2.12972453E-08
  1 1150 2.17411566E-08
  1 1151 2.18236901E-08
  1 1152 2.22455621E-08
  1 1153 2.32394443E-08
  1 1154 2.39661190E-08
  1 1155 2.37082043E-08
  1 1156 2.29014026E-08
  1 1157 2.23118687E-08
  1 1158 2.18057977E-08
  1 1159 2.07997920E-08
  1 1160 1.95485788E-08
  1 1161 1.89671267E-08
  1 1162 1.92092034E-08
  1 1163 1.94001943E-08
  1 1164 1.90009074E-08
  1 1165 1.85318694E-08
  1 1166 1.85050099E-08
  1 1167 1.84679970E-08
  1 1168 1.78290484E-08
  1 1169 1.70224725E-08
  1 1170 1.69481414E-08
  1 1171 1.75641260E-08
  1 1172 1.79849913E-08
  1 1173 1.79035482E-08
  1 1174 1.79371797E-08
  1 1175 1.83797757E-08
  1 1176 1.85786959E-08
  1 1177 1.80561769E-08
  1 1178 1.74540211E-08
  1 1179 1.76329174E-08
  1 1180 1.83911429E-08
  1 1181 1.89217412E-08
  1 1182 1.91795280E-08
  1 1183 1.98194400E-08
  1 1184 2.08637459E-08
  1 1185 2.14593652E-08
  1 1186 2.12106373E-08
  1 1187 2.08377296E-08
  1 1188 2.10211581E-08
  1 1189 2.13647327E-08
  1 1190 2.11916148E-08
  1 1191 2.07592469E-08
  1 1192 2.07957583E-08
  1 1193 2.11778930E-08
  1 1194 2.10685149E-08
  1 1195 2.03302327E-08
  1 1196 1.98191554E-08
  1 1197 2.00438413E-08
  1 1198 2.04418415E-08
  1 1199 2.04517410E-08
  1 1200 2.04923175E-08
  1 1201 1.72840153E-08
  1 1202 1.68693038E-08
  1 1203 1.70572312E-08
  1 1204 1.70709160E-08
  1 1205 1.62417004E-08
  1 1206 1.50515115E-08
  1 1207 1.43198323E-08
  1 1208 1.39441834E-08
  1 1209 1.33144838E-08
  1 1210 1.26116736E-08
  1 1211 1.26752546E-08
  1 1212 1.36031641E-08
  1 1213 1.44711240E-08
  1 1214 1.46948653E-08
  1 1215 1.47808115E-08
  1 1216 1.52662992E-08
  1 1217 1.57273419E-08
  1 1218 1.55664186E-08
  1 1219 1.51889834E-08
  1 1220 1.54776506E-08
  1 1221 1.63898303E-08
  1 1222 1.70367403E-08
  1 1223 1.71092089E-08
  1 1224 1.72516872E-08
  1 1225 1.78132255E-08
  1 1226 1.81803098E-08
  1 1227 1.78651987E-08
  1 1228 1.74676612E-08
  1 1229 1.78065883E-08
  1 1230 1.86409347E-08
  1 1231 1.91184490E-08
  1 1232 1.91662687E-08
  1 1233 1.94671913E-08
  1 1234 2.01226192E-08
  1 1235 2.03615487E-08
  1 1236 1.98402453E-08
  1 1237 1.93103310E-08
  1 1238 1.94749851E-08
  1 1239 1.99347029E-08
  1 1240 1.99719783E-08
  1 1241 1.97976264E-08
  1 1242 2.01286737E-08
  1 1243 2.08619830E-08
  1 1244 2.11718461E-08
  1 1245 2.09060862E-08
  1 1246 2.08963314E-08
  1 1247 2.16218511E-08
  1 1248 2.24635574E-08
  1 1249 2.27721729E-08
  1 1250 2.28899722E-08
  1 1251 2.33872840E-08
  1 1252 2.38764089E-08
  1 1253 2.35112171E-08
  1 1254 2.23816980E-08
  1 1255 2.14414509E-08
  1 1256 2.10705017E-08
  1 1257 2.06711251E-08
  1 1258 1.99037401E-08
  1 1259 1.93721205E-08
  1 1260 1.95540796E-08
  1 1261 1.98365717E-08
  1 1262 1.93796847E-08
  1 1263 1.84145789E-08
  1 1264 1.78173545E-08
  1 1265 1.77097364E-08
  1 1266 1.74498760E-08
  1 1267 1.69507674E-08
  1 1268 1.69763003E-08
  1 1269 1.78427808E-08
  1 1270 1.87393476E-08
  1 1271 1.88778789E-08
  1 1272 1.85879974E-08
  1 1273 1.85753094E-08
  1 1274 1.86816611E-08
  1 1275 1.82854621E-08
  1 1276 1.76086535E-08
  1 1277 1.76006332E-08
  1 1278 1.85009511E-08
  1 1279 1.94757082E-08
  1 1280 1.99346010E-08
  1 1281 2.03115065E-08
  1 1282 2.10516783E-08
  1 1283 2.16324541E-08
  1 1284 2.13627442E-08
  1 1285 2.06102091E-08
  1 1286 2.03213724E-08
  1 1287 2.05916334E-08
  1 1288 2.06634715E-08
  1 1289 2.03030738E-08