# File generated by Flopy version 3.6.0 on 02/25/2025 at 10:29:31.
BEGIN options
  PRINT_OPTION  summary
  COMPLEXITY  complex
END options

BEGIN linear
  LINEAR_ACCELERATION  bicgstab
END linear

