# File generated by Flopy version 3.7.0 on 06/10/2024 at 08:48:24.
BEGIN options
END options

BEGIN dimensions
  MAXBOUND  7355
END dimensions

BEGIN period  1
  1 1 1.34032514E-08
  1 2 1.59921845E-08
  1 3 2.19204960E-08
  1 4 2.59232009E-08
  1 5 1.86502431E-08
  1 6 1.35993458E-08
  1 7 1.30812922E-08
  1 8 1.50453720E-08
  1 9 1.80483199E-08
  1 10 2.15423148E-08
  1 11 1.98837554E-08
  1 12 2.05999402E-08
  1 13 1.52943113E-08
  1 14 1.30600554E-08
  1 15 9.53356765E-09
  1 16 8.69934827E-09
  1 17 7.56837652E-09
  1 18 8.12269917E-09
  1 19 1.09729024E-08
  1 20 1.33229450E-08
  1 21 1.96011923E-08
  1 22 2.26204369E-08
  1 23 2.54209002E-08
  1 24 2.27346611E-08
  1 25 1.77187123E-08
  1 26 1.47573503E-08
  1 27 1.47484053E-08
  1 28 1.19976567E-08
  1 29 1.04962126E-08
  1 30 1.11982774E-08
  1 31 1.64823958E-08
  1 32 2.35711288E-08
  1 33 2.45291641E-08
  1 34 1.79928379E-08
  1 35 1.63702168E-08
  1 36 2.04250832E-08
  1 37 2.43366790E-08
  1 38 2.40818926E-08
  1 39 2.13553445E-08
  1 40 1.68219909E-08
  1 41 1.53302621E-08
  1 42 1.42960353E-08
  1 43 1.21619484E-08
  1 44 1.29633287E-08
  1 45 1.08368433E-08
  1 46 9.56132492E-09
  1 47 1.05857003E-08
  1 48 9.49962378E-09
  1 49 1.04089638E-08
  1 50 1.44180916E-08
  1 51 1.84339325E-08
  1 52 1.69945945E-08
  1 53 1.56166084E-08
  1 54 1.59788973E-08
  1 55 2.04757081E-08
  1 56 1.93288813E-08
  1 57 1.59126080E-08
  1 58 1.43615165E-08
  1 59 1.42631402E-08
  1 60 1.42591570E-08
  1 61 1.24423177E-08
  1 62 1.28079419E-08
  1 63 1.03790182E-08
  1 64 8.71226542E-09
  1 65 6.87354234E-09
  1 66 6.08889852E-09
  1 67 7.53832138E-09
  1 68 1.01151081E-08
  1 69 1.23578506E-08
  1 70 1.28114968E-08
  1 71 1.53650818E-08
  1 72 1.42398874E-08
  1 73 1.34689849E-08
  1 74 1.04661231E-08
  1 75 1.00422978E-08
  1 76 1.06143890E-08
  1 77 9.41493868E-09
  1 78 8.63287883E-09
  1 79 1.11564751E-08
  1 80 1.45424114E-08
  1 81 1.84682508E-08
  1 82 2.64563335E-08
  1 83 3.19103710E-08
  1 84 2.53954478E-08
  1 85 1.80225484E-08
  1 86 1.39240127E-08
  1 87 1.32727761E-08
  1 88 1.35502931E-08
  1 89 1.81885817E-08
  1 90 2.28964942E-08
  1 91 2.13131126E-08
  1 92 2.13794775E-08
  1 93 1.57072806E-08
  1 94 1.12391299E-08
  1 95 1.08284146E-08
  1 96 1.03129610E-08
  1 97 1.05106340E-08
  1 98 1.17484742E-08
  1 99 1.44151297E-08
  1 100 1.66171910E-08
  1 101 1.33227382E-08
  1 102 1.68423238E-08
  1 103 2.06457291E-08
  1 104 2.69359936E-08
  1 105 2.43733189E-08
  1 106 1.53508516E-08
  1 107 1.33764896E-08
  1 108 1.60816524E-08
  1 109 1.78634615E-08
  1 110 2.07591092E-08
  1 111 1.88277522E-08
  1 112 2.06565265E-08
  1 113 1.70399425E-08
  1 114 1.31576084E-08
  1 115 1.08911158E-08
  1 116 8.61849459E-09
  1 117 7.69638430E-09
  1 118 7.10825839E-09
  1 119 9.62924449E-09
  1 120 1.18592688E-08
  1 121 1.58628310E-08
  1 122 2.14580646E-08
  1 123 2.29091962E-08
  1 124 2.24700592E-08
  1 125 1.71317402E-08
  1 126 1.21416122E-08
  1 127 1.34346117E-08
  1 128 1.12623132E-08
  1 129 9.51776005E-09
  1 130 1.05400594E-08
  1 131 1.41537118E-08
  1 132 2.19441578E-08
  1 133 2.53004926E-08
  1 134 2.05318031E-08
  1 135 1.59163570E-08
  1 136 1.66024788E-08
  1 137 2.07382385E-08
  1 138 2.37013859E-08
  1 139 1.76951353E-08
  1 140 1.45185085E-08
  1 141 1.57677025E-08
  1 142 1.50580289E-08
  1 143 1.34825018E-08
  1 144 1.29900271E-08
  1 145 1.16743713E-08
  1 146 1.03155467E-08
  1 147 1.03605046E-08
  1 148 1.03120532E-08
  1 149 8.75288588E-09
  1 150 1.15456604E-08
  1 151 1.66217926E-08
  1 152 1.70452037E-08
  1 153 1.54584125E-08
  1 154 1.46854392E-08
  1 155 1.81248127E-08
  1 156 2.16342966E-08
  1 157 1.87213375E-08
  1 158 1.63601313E-08
  1 159 1.46272120E-08
  1 160 1.35863433E-08
  1 161 1.33031604E-08
  1 162 1.29506008E-08
  1 163 1.17669933E-08
  1 164 9.15047086E-09
  1 165 8.01824288E-09
  1 166 6.50636949E-09
  1 167 7.26539277E-09
  1 168 9.71778823E-09
  1 169 1.26805938E-08
  1 170 1.15395843E-08
  1 171 1.42603272E-08
  1 172 1.37314685E-08
  1 173 1.43802933E-08
  1 174 1.03723963E-08
  1 175 9.56052794E-09
  1 176 1.02525378E-08
  1 177 9.51022265E-09
  1 178 8.41263479E-09
  1 179 9.94802052E-09
  1 180 1.39053255E-08
  1 181 1.58855289E-08
  1 182 2.04452914E-08
  1 183 2.76076302E-08
  1 184 2.50049314E-08
  1 185 2.05659868E-08
  1 186 1.33965863E-08
  1 187 1.30567142E-08
  1 188 1.32021173E-08
  1 189 1.52320439E-08
  1 190 2.25870553E-08
  1 191 2.19864278E-08
  1 192 2.01395006E-08
  1 193 1.81741196E-08
  1 194 1.28804000E-08
  1 195 1.05600868E-08
  1 196 9.82438049E-09
  1 197 1.04566782E-08
  1 198 1.13215608E-08
  1 199 1.32940929E-08
  1 200 1.75474616E-08
  1 201 1.19324502E-08
  1 202 1.41584792E-08
  1 203 1.91756647E-08
  1 204 2.43118978E-08
  1 205 2.59399266E-08
  1 206 1.70260122E-08
  1 207 1.36181560E-08
  1 208 1.37090681E-08
  1 209 1.70649190E-08
  1 210 1.87817614E-08
  1 211 1.73902309E-08
  1 212 1.86408563E-08
  1 213 1.74159273E-08
  1 214 1.29222252E-08
  1 215 1.10799115E-08
  1 216 8.56902520E-09
  1 217 7.85662784E-09
  1 218 7.53222343E-09
  1 219 8.23010853E-09
  1 220 1.18052309E-08
  1 221 1.50022177E-08
  1 222 1.87757400E-08
  1 223 2.36472149E-08
  1 224 2.48922730E-08
  1 225 1.85716268E-08
  1 226 1.13247023E-08
  1 227 1.14698769E-08
  1 228 1.11792358E-08
  1 229 9.19408604E-09
  1 230 9.50483588E-09
  1 231 1.27897515E-08
  1 232 2.06227118E-08
  1 233 2.72681740E-08
  1 234 2.44847829E-08
  1 235 1.99726705E-08
  1 236 1.57831410E-08
  1 237 1.82597856E-08
  1 238 2.52708542E-08
  1 239 1.94434155E-08
  1 240 1.41324757E-08
  1 241 1.49429674E-08
  1 242 1.55643335E-08
  1 243 1.57126911E-08
  1 244 1.33594436E-08
  1 245 1.21513724E-08
  1 246 1.21261897E-08
  1 247 1.21527119E-08
  1 248 1.19044144E-08
  1 249 9.41817792E-09
  1 250 1.05129150E-08
  1 251 1.59869824E-08
  1 252 1.68398367E-08
  1 253 1.59964961E-08
  1 254 1.37099986E-08
  1 255 1.60269684E-08
  1 256 2.09909112E-08
  1 257 2.07495102E-08
  1 258 1.93239750E-08
  1 259 1.66792103E-08
  1 260 1.36044391E-08
  1 261 1.29563566E-08
  1 262 1.21250838E-08
  1 263 1.24222134E-08
  1 264 1.01835202E-08
  1 265 8.23171068E-09
  1 266 7.27268380E-09
  1 267 8.09885415E-09
  1 268 1.02172281E-08
  1 269 1.35393712E-08
  1 270 1.23438680E-08
  1 271 1.22605845E-08
  1 272 1.33764047E-08
  1 273 1.40239430E-08
  1 274 1.14141524E-08
  1 275 9.67049358E-09
  1 276 9.69154991E-09
  1 277 1.01381182E-08
  1 278 8.62145277E-09
  1 279 9.62472786E-09
  1 280 1.35418336E-08
  1 281 1.41268825E-08
  1 282 1.72581815E-08
  1 283 2.23899689E-08
  1 284 2.36443448E-08
  1 285 2.03446530E-08
  1 286 1.54880005E-08
  1 287 1.27312347E-08
  1 288 1.27546884E-08
  1 289 1.38361981E-08
  1 290 2.04511552E-08
  1 291 2.39124960E-08
  1 292 1.92670988E-08
  1 293 1.96665145E-08
  1 294 1.63563253E-08
  1 295 1.05003032E-08
  1 296 9.49622326E-09
  1 297 1.02546788E-08
  1 298 1.05538025E-08
  1 299 1.23278370E-08
  1 300 1.59876488E-08
  1 301 1.13283486E-08
  1 302 1.34442546E-08
  1 303 1.66674375E-08
  1 304 2.13725090E-08
  1 305 2.63139898E-08
  1 306 1.99352552E-08
  1 307 1.46367658E-08
  1 308 1.26933807E-08
  1 309 1.68736415E-08
  1 310 2.01020771E-08
  1 311 1.69745037E-08
  1 312 1.75563299E-08
  1 313 1.82910667E-08
  1 314 1.31502361E-08
  1 315 1.21722679E-08
  1 316 8.78429095E-09
  1 317 7.45843679E-09
  1 318 7.47588066E-09
  1 319 7.84990471E-09
  1 320 1.15793949E-08
  1 321 1.40134965E-08
  1 322 1.64687973E-08
  1 323 2.33933443E-08
  1 324 2.50140631E-08
  1 325 1.98498149E-08
  1 326 1.28735690E-08
  1 327 9.77279369E-09
  1 328 1.12747497E-08
  1 329 9.65451890E-09
  1 330 7.83942582E-09
  1 331 1.19627069E-08
  1 332 2.08353947E-08
  1 333 2.83744264E-08
  1 334 2.70115911E-08
  1 335 2.12775930E-08
  1 336 1.68667002E-08
  1 337 1.61760540E-08
  1 338 2.23985868E-08
  1 339 2.00854600E-08
  1 340 1.43810448E-08
  1 341 1.29665716E-08
  1 342 1.54066903E-08
  1 343 1.69524822E-08
  1 344 1.39703444E-08
  1 345 1.27214215E-08
  1 346 1.37646748E-08
  1 347 1.34802872E-08
  1 348 1.37946149E-08
  1 349 1.07095965E-08
  1 350 1.03081516E-08
  1 351 1.44952261E-08
  1 352 1.60303032E-08
  1 353 1.57147508E-08
  1 354 1.38926896E-08
  1 355 1.33334963E-08
  1 356 1.69635825E-08
  1 357 2.09989620E-08
  1 358 2.25410090E-08
  1 359 1.95051410E-08
  1 360 1.46647772E-08
  1 361 1.26588727E-08
  1 362 1.20169666E-08
  1 363 1.17650870E-08
  1 364 1.12663864E-08
  1 365 8.10377254E-09
  1 366 7.22626486E-09
  1 367 8.45342055E-09
  1 368 1.01738457E-08
  1 369 1.25527095E-08
  1 370 1.37756777E-08
  1 371 1.20396477E-08
  1 372 1.24113033E-08
  1 373 1.29732387E-08
  1 374 1.18244326E-08
  1 375 9.96098587E-09
  1 376 9.40353448E-09
  1 377 1.01329648E-08
  1 378 8.72472256E-09
  1 379 8.81343608E-09
  1 380 1.23049820E-08
  1 381 1.33585164E-08
  1 382 1.52635714E-08
  1 383 1.74487416E-08
  1 384 2.03490711E-08
  1 385 1.91273549E-08
  1 386 1.73312921E-08
  1 387 1.31736098E-08
  1 388 1.34724591E-08
  1 389 1.26529553E-08
  1 390 1.80911298E-08
  1 391 2.28140948E-08
  1 392 1.98070928E-08
  1 393 1.96527558E-08
  1 394 1.79016355E-08
  1 395 1.29102671E-08
  1 396 1.07540003E-08
  1 397 1.13724186E-08
  1 398 1.11182529E-08
  1 399 1.22410547E-08
  1 400 1.50134533E-08
  1 401 1.13191474E-08
  1 402 1.33729976E-08
  1 403 1.48911228E-08
  1 404 2.04827675E-08
  1 405 2.26145981E-08
  1 406 2.18734244E-08
  1 407 1.57183585E-08
  1 408 1.36312411E-08
  1 409 1.54836147E-08
  1 410 1.94714194E-08
  1 411 1.68814992E-08
  1 412 1.55621788E-08
  1 413 1.70192132E-08
  1 414 1.40028769E-08
  1 415 1.30822901E-08
  1 416 1.02608403E-08
  1 417 8.60822787E-09
  1 418 7.86925930E-09
  1 419 8.14738471E-09
  1 420 9.98860811E-09
  1 421 1.39563926E-08
  1 422 1.52137594E-08
  1 423 2.10734128E-08
  1 424 2.64309438E-08
  1 425 2.26761675E-08
  1 426 1.49176104E-08
  1 427 9.94576860E-09
  1 428 1.10053413E-08
  1 429 1.00592835E-08
  1 430 7.91426017E-09
  1 431 1.03809632E-08
  1 432 2.04727628E-08
  1 433 3.27767321E-08
  1 434 3.04222822E-08
  1 435 2.14566642E-08
  1 436 1.85267809E-08
  1 437 1.61551204E-08
  1 438 2.02062237E-08
  1 439 1.97815306E-08
  1 440 1.51018637E-08
  1 441 1.29577457E-08
  1 442 1.33627305E-08
  1 443 1.56981121E-08
  1 444 1.43438412E-08
  1 445 1.37948412E-08
  1 446 1.47201811E-08
  1 447 1.38631031E-08
  1 448 1.52827869E-08
  1 449 1.29841133E-08
  1 450 1.18883570E-08
  1 451 1.44451736E-08
  1 452 1.62999988E-08
  1 453 1.41020728E-08
  1 454 1.32387647E-08
  1 455 1.24112709E-08
  1 456 1.47430408E-08
  1 457 1.96174008E-08
  1 458 2.11495473E-08
  1 459 2.12334575E-08
  1 460 1.50433709E-08
  1 461 1.26622408E-08
  1 462 1.23504157E-08
  1 463 1.22135295E-08
  1 464 1.26117454E-08
  1 465 9.21576651E-09
  1 466 6.97790634E-09
  1 467 9.47346896E-09
  1 468 1.12822445E-08
  1 469 1.34906580E-08
  1 470 1.59941454E-08
  1 471 1.37682229E-08
  1 472 1.27670254E-08
  1 473 1.28932749E-08
  1 474 1.19796194E-08
  1 475 1.22793008E-08
  1 476 1.10664341E-08
  1 477 1.15781018E-08
  1 478 1.01390338E-08
  1 479 9.06761838E-09
  1 480 1.15056436E-08
  1 481 1.30327851E-08
  1 482 1.51218401E-08
  1 483 1.64914181E-08
  1 484 1.77830602E-08
  1 485 1.81739510E-08
  1 486 1.79520968E-08
  1 487 1.49072652E-08
  1 488 1.37612784E-08
  1 489 1.23044042E-08
  1 490 1.53975525E-08
  1 491 2.27357978E-08
  1 492 2.14343792E-08
  1 493 1.75546384E-08
  1 494 1.72061827E-08
  1 495 1.52940120E-08
  1 496 1.26077261E-08
  1 497 1.25715396E-08
  1 498 1.11846794E-08
  1 499 1.11587641E-08
  1 500 1.37602949E-08
  1 501 1.08484485E-08
  1 502 1.17378251E-08
  1 503 1.52429086E-08
  1 504 1.84163699E-08
  1 505 1.93564943E-08
  1 506 1.81685678E-08
  1 507 1.69661176E-08
  1 508 1.38810319E-08
  1 509 1.32148004E-08
  1 510 1.73943881E-08
  1 511 1.65023158E-08
  1 512 1.62642738E-08
  1 513 1.65935550E-08
  1 514 1.59820315E-08
  1 515 1.38486752E-08
  1 516 1.31235218E-08
  1 517 9.89960397E-09
  1 518 8.82563299E-09
  1 519 8.53997647E-09
  1 520 9.58299463E-09
  1 521 1.32069586E-08
  1 522 1.36112159E-08
  1 523 1.88892838E-08
  1 524 2.74701975E-08
  1 525 2.47208741E-08
  1 526 1.70851384E-08
  1 527 1.19466475E-08
  1 528 1.02111300E-08
  1 529 1.05304588E-08
  1 530 8.72318267E-09
  1 531 9.29695934E-09
  1 532 1.94595163E-08
  1 533 3.52705679E-08
  1 534 3.60898597E-08
  1 535 2.24850968E-08
  1 536 1.74911709E-08
  1 537 1.65772003E-08
  1 538 1.87540931E-08
  1 539 2.01063409E-08
  1 540 1.47684900E-08
  1 541 1.30740421E-08
  1 542 1.22105874E-08
  1 543 1.27726818E-08
  1 544 1.48225925E-08
  1 545 1.38362779E-08
  1 546 1.47613634E-08
  1 547 1.37185508E-08
  1 548 1.61843737E-08
  1 549 1.46883923E-08
  1 550 1.41198230E-08
  1 551 1.53846587E-08
  1 552 1.53447358E-08
  1 553 1.42359554E-08
  1 554 1.38943666E-08
  1 555 1.16968857E-08
  1 556 1.29012447E-08
  1 557 1.53677697E-08
  1 558 1.86457844E-08
  1 559 2.04965917E-08
  1 560 1.59393137E-08
  1 561 1.33113755E-08
  1 562 1.26386132E-08
  1 563 1.19395558E-08
  1 564 1.29876021E-08
  1 565 1.04811068E-08
  1 566 7.83240159E-09
  1 567 9.43041564E-09
  1 568 1.07756921E-08
  1 569 1.43004340E-08
  1 570 1.77569063E-08
  1 571 1.54232507E-08
  1 572 1.37715354E-08
  1 573 1.41431735E-08
  1 574 1.34007632E-08
  1 575 1.35936295E-08
  1 576 1.32882636E-08
  1 577 1.29612463E-08
  1 578 1.02604581E-08
  1 579 9.20360606E-09
  1 580 9.88579003E-09
  1 581 1.16938717E-08
  1 582 1.43071054E-08
  1 583 1.57258485E-08
  1 584 1.51976662E-08
  1 585 1.58759335E-08
  1 586 1.62449167E-08
  1 587 1.58076309E-08
  1 588 1.36195692E-08
  1 589 1.33785742E-08
  1 590 1.45179761E-08
  1 591 2.13759143E-08
  1 592 2.20676050E-08
  1 593 1.88673831E-08
  1 594 1.66622919E-08
  1 595 1.57665176E-08
  1 596 1.40537607E-08
  1 597 1.44298680E-08
  1 598 1.39463123E-08
  1 599 1.13485555E-08
  1 600 1.41450089E-08
  1 601 1.02827058E-08
  1 602 1.06092387E-08
  1 603 1.43692180E-08
  1 604 1.80295772E-08
  1 605 1.74610214E-08
  1 606 1.60516931E-08
  1 607 1.63474732E-08
  1 608 1.39048456E-08
  1 609 1.23426239E-08
  1 610 1.47783510E-08
  1 611 1.59534227E-08
  1 612 1.56257031E-08
  1 613 1.60828550E-08
  1 614 1.65829540E-08
  1 615 1.56941044E-08
  1 616 1.48240849E-08
  1 617 1.14357393E-08
  1 618 9.93007216E-09
  1 619 9.15312272E-09
  1 620 9.97248593E-09
  1 621 1.25793964E-08
  1 622 1.40833091E-08
  1 623 1.82073077E-08
  1 624 2.70519221E-08
  1 625 2.65373647E-08
  1 626 2.03101497E-08
  1 627 1.30528916E-08
  1 628 1.07184102E-08
  1 629 1.00354138E-08
  1 630 9.39783244E-09
  1 631 8.96445667E-09
  1 632 1.57822512E-08
  1 633 3.16613380E-08
  1 634 3.83592729E-08
  1 635 2.55036917E-08
  1 636 1.71847690E-08
  1 637 1.58280851E-08
  1 638 1.76266790E-08
  1 639 2.10871709E-08
  1 640 1.52428376E-08
  1 641 1.33494710E-08
  1 642 1.17017320E-08
  1 643 1.03914887E-08
  1 644 1.25510507E-08
  1 645 1.24788864E-08
  1 646 1.34857556E-08
  1 647 1.46541465E-08
  1 648 1.48991642E-08
  1 649 1.62681719E-08
  1 650 1.74164524E-08
  1 651 1.84910978E-08
  1 652 1.67096879E-08
  1 653 1.48445096E-08
  1 654 1.36469922E-08
  1 655 1.24745723E-08
  1 656 1.24872306E-08
  1 657 1.35556047E-08
  1 658 1.63222338E-08
  1 659 1.92038982E-08
  1 660 1.82965699E-08
  1 661 1.47738548E-08
  1 662 1.27947028E-08
  1 663 1.23177990E-08
  1 664 1.41997284E-08
  1 665 1.19123165E-08
  1 666 9.04960060E-09
  1 667 9.22087517E-09
  1 668 1.05041258E-08
  1 669 1.39123200E-08
  1 670 1.89282175E-08
  1 671 1.67514091E-08
  1 672 1.39919130E-08
  1 673 1.31973551E-08
  1 674 1.42828357E-08
  1 675 1.44946027E-08
  1 676 1.52719408E-08
  1 677 1.45484647E-08
  1 678 1.19781676E-08
  1 679 9.59783155E-09
  1 680 9.63896813E-09
  1 681 1.10939419E-08
  1 682 1.29669864E-08
  1 683 1.41611719E-08
  1 684 1.40001763E-08
  1 685 1.43672400E-08
  1 686 1.43232054E-08
  1 687 1.57939017E-08
  1 688 1.46351629E-08
  1 689 1.40291238E-08
  1 690 1.42032928E-08
  1 691 2.06322306E-08
  1 692 2.05388385E-08
  1 693 2.04131852E-08
  1 694 1.80756669E-08
  1 695 1.62869860E-08
  1 696 1.67270968E-08
  1 697 1.49061178E-08
  1 698 1.50675025E-08
  1 699 1.17389038E-08
  1 700 1.28933779E-08
  1 701 1.12641360E-08
  1 702 1.13861792E-08
  1 703 1.24830727E-08
  1 704 1.69791277E-08
  1 705 1.73501846E-08
  1 706 1.53702577E-08
  1 707 1.48353723E-08
  1 708 1.41486558E-08
  1 709 1.18803055E-08
  1 710 1.41280125E-08
  1 711 1.49336811E-08
  1 712 1.47368574E-08
  1 713 1.47966993E-08
  1 714 1.57780406E-08
  1 715 1.82136012E-08
  1 716 1.63976147E-08
  1 717 1.31250756E-08
  1 718 1.17303122E-08
  1 719 9.76113357E-09
  1 720 1.11681444E-08
  1 721 1.25467414E-08
  1 722 1.46757146E-08
  1 723 1.66939572E-08
  1 724 2.31300381E-08
  1 725 2.58477953E-08
  1 726 2.11152293E-08
  1 727 1.41583796E-08
  1 728 1.16517044E-08
  1 729 9.25535397E-09
  1 730 1.02612707E-08
  1 731 9.80214475E-09
  1 732 1.35127369E-08
  1 733 2.76970276E-08
  1 734 3.55977591E-08
  1 735 3.30549796E-08
  1 736 1.80098311E-08
  1 737 1.50565468E-08
  1 738 1.60782567E-08
  1 739 2.09562446E-08
  1 740 1.81049787E-08
  1 741 1.38224385E-08
  1 742 1.35067741E-08
  1 743 9.34927995E-09
  1 744 9.59023507E-09
  1 745 1.16325395E-08
  1 746 1.27779078E-08
  1 747 1.46467467E-08
  1 748 1.48271016E-08
  1 749 1.61701173E-08
  1 750 1.88977115E-08
  1 751 2.06407443E-08
  1 752 1.71669512E-08
  1 753 1.44892286E-08
  1 754 1.40164647E-08
  1 755 1.17222358E-08
  1 756 1.21160359E-08
  1 757 1.35725581E-08
  1 758 1.39308513E-08
  1 759 1.70954360E-08
  1 760 1.88142797E-08
  1 761 1.66480303E-08
  1 762 1.34513683E-08
  1 763 1.27905171E-08
  1 764 1.42515420E-08
  1 765 1.31618670E-08
  1 766 9.32285471E-09
  1 767 9.92445305E-09
  1 768 1.05857571E-08
  1 769 1.31287313E-08
  1 770 1.88899026E-08
  1 771 1.75051882E-08
  1 772 1.43765683E-08
  1 773 1.33212931E-08
  1 774 1.43632376E-08
  1 775 1.74612773E-08
  1 776 1.61629960E-08
  1 777 1.57435526E-08
  1 778 1.39052256E-08
  1 779 1.05550834E-08
  1 780 9.51827729E-09
  1 781 1.03747495E-08
  1 782 1.04299247E-08
  1 783 1.08948483E-08
  1 784 1.35317019E-08
  1 785 1.41550812E-08
  1 786 1.38371106E-08
  1 787 1.38671151E-08
  1 788 1.50877272E-08
  1 789 1.42646906E-08
  1 790 1.40551516E-08
  1 791 1.76835931E-08
  1 792 1.72977241E-08
  1 793 1.98011591E-08
  1 794 1.75130713E-08
  1 795 1.60637738E-08
  1 796 1.64767371E-08
  1 797 1.41228677E-08
  1 798 1.50540478E-08
  1 799 1.22723435E-08
  1 800 1.27558320E-08
  1 801 1.33177613E-08
  1 802 1.38255778E-08
  1 803 1.09335204E-08
  1 804 1.43276296E-08
  1 805 1.72525209E-08
  1 806 1.48331176E-08
  1 807 1.37885847E-08
  1 808 1.44082330E-08
  1 809 1.30243562E-08
  1 810 1.31386029E-08
  1 811 1.53075605E-08
  1 812 1.45305445E-08
  1 813 1.48775558E-08
  1 814 1.53082435E-08
  1 815 1.69848917E-08
  1 816 1.71346000E-08
  1 817 1.45646776E-08
  1 818 1.25513684E-08
  1 819 1.06818570E-08
  1 820 1.32929089E-08
  1 821 1.33867165E-08
  1 822 1.48361799E-08
  1 823 1.69247623E-08
  1 824 2.23952864E-08
  1 825 2.66807149E-08
  1 826 2.15446754E-08
  1 827 1.81421183E-08
  1 828 1.30178717E-08
  1 829 1.00346445E-08
  1 830 1.00151350E-08
  1 831 1.02545202E-08
  1 832 1.17504278E-08
  1 833 2.29529251E-08
  1 834 2.96939351E-08
  1 835 3.23679017E-08
  1 836 2.05640776E-08
  1 837 1.60169898E-08
  1 838 1.57409635E-08
  1 839 1.93191394E-08
  1 840 2.11518806E-08
  1 841 1.50815383E-08
  1 842 1.39675580E-08
  1 843 1.00914830E-08
  1 844 7.55397345E-09
  1 845 9.69254257E-09
  1 846 1.10957087E-08
  1 847 1.32917419E-08
  1 848 1.53813917E-08
  1 849 1.55086429E-08
  1 850 1.94744359E-08
  1 851 2.25927679E-08
  1 852 2.03004853E-08
  1 853 1.46575460E-08
  1 854 1.55201891E-08
  1 855 1.28101658E-08
  1 856 1.19694167E-08
  1 857 1.31778921E-08
  1 858 1.24587879E-08
  1 859 1.52887708E-08
  1 860 1.64813476E-08
  1 861 1.76068014E-08
  1 862 1.46945823E-08
  1 863 1.26181608E-08
  1 864 1.26651964E-08
  1 865 1.46237232E-08
  1 866 1.06230398E-08
  1 867 1.12900257E-08
  1 868 1.18144069E-08
  1 869 1.29839833E-08
  1 870 1.83861224E-08
  1 871 1.77661493E-08
  1 872 1.36929551E-08
  1 873 1.34033862E-08
  1 874 1.44849414E-08
  1 875 2.07299378E-08
  1 876 1.91974585E-08
  1 877 1.67758685E-08
  1 878 1.57121495E-08
  1 879 1.29787730E-08
  1 880 9.64896473E-09
  1 881 1.06018246E-08
  1 882 8.89701837E-09
  1 883 8.95407846E-09
  1 884 1.17938550E-08
  1 885 1.42950604E-08
  1 886 1.47698570E-08
  1 887 1.44859730E-08
  1 888 1.53099296E-08
  1 889 1.55682115E-08
  1 890 1.37377441E-08
  1 891 1.52693845E-08
  1 892 1.72828681E-08
  1 893 1.86179620E-08
  1 894 1.86749561E-08
  1 895 1.76130167E-08
  1 896 1.83023396E-08
  1 897 1.39602110E-08
  1 898 1.40676007E-08
  1 899 1.36830805E-08
  1 900 1.43203177E-08
  1 901 1.34660628E-08
  1 902 1.61592999E-08
  1 903 1.17815394E-08
  1 904 1.46021970E-08
  1 905 1.61453652E-08
  1 906 1.50626215E-08
  1 907 1.35850930E-08
  1 908 1.52233544E-08
  1 909 1.35876106E-08
  1 910 1.31548487E-08
  1 911 1.50282837E-08
  1 912 1.47029969E-08
  1 913 1.50812128E-08
  1 914 1.49762235E-08
  1 915 1.62301091E-08
  1 916 1.93821849E-08
  1 917 1.68926912E-08
  1 918 1.35848632E-08
  1 919 1.22530496E-08
  1 920 1.58939117E-08
  1 921 1.55114206E-08
  1 922 1.39521399E-08
  1 923 1.57733607E-08
  1 924 2.03058665E-08
  1 925 2.29793588E-08
  1 926 2.07512431E-08
  1 927 1.87077991E-08
  1 928 1.44748550E-08
  1 929 1.04651937E-08
  1 930 9.58624273E-09
  1 931 1.08041412E-08
  1 932 1.06628448E-08
  1 933 1.78415256E-08
  1 934 2.64578580E-08
  1 935 2.91972244E-08
  1 936 2.34423808E-08
  1 937 1.78273887E-08
  1 938 1.60444285E-08
  1 939 1.72362544E-08
  1 940 2.06349359E-08
  1 941 1.70633167E-08
  1 942 1.38151107E-08
  1 943 1.09705266E-08
  1 944 6.80116276E-09
  1 945 7.89308222E-09
  1 946 9.16340827E-09
  1 947 1.17105822E-08
  1 948 1.52433808E-08
  1 949 1.62203771E-08
  1 950 1.93413188E-08
  1 951 2.31524783E-08
  1 952 2.25007777E-08
  1 953 1.53817528E-08
  1 954 1.68737580E-08
  1 955 1.30911645E-08
  1 956 1.14202635E-08
  1 957 1.23738601E-08
  1 958 1.30884922E-08
  1 959 1.25469840E-08
  1 960 1.49659462E-08
  1 961 1.76532697E-08
  1 962 1.67381256E-08
  1 963 1.32608067E-08
  1 964 1.20102464E-08
  1 965 1.42075013E-08
  1 966 1.20309113E-08
  1 967 1.08456166E-08
  1 968 1.24946434E-08
  1 969 1.33200518E-08
  1 970 1.67463824E-08
  1 971 1.79169255E-08
  1 972 1.33061827E-08
  1 973 1.27367616E-08
  1 974 1.36398681E-08
  1 975 1.91375284E-08
  1 976 2.10872134E-08
  1 977 1.96661098E-08
  1 978 1.58291648E-08
  1 979 1.60667782E-08
  1 980 1.02912081E-08
  1 981 1.04241509E-08
  1 982 9.96351098E-09
  1 983 7.77921639E-09
  1 984 8.53254012E-09
  1 985 1.35771819E-08
  1 986 1.53944667E-08
  1 987 1.68068925E-08
  1 988 1.48781124E-08
  1 989 1.64627527E-08
  1 990 1.40314670E-08
  1 991 1.41088174E-08
  1 992 1.71552315E-08
  1 993 1.64190199E-08
  1 994 1.84835067E-08
  1 995 1.80028196E-08
  1 996 1.90787608E-08
  1 997 1.46058103E-08
  1 998 1.22608154E-08
  1 999 1.38778740E-08
  1 1000 1.40778184E-08
  1 1001 1.19208011E-08
  1 1002 1.63528677E-08
  1 1003 1.43789022E-08
  1 1004 1.50157444E-08
  1 1005 1.41739498E-08
  1 1006 1.39691874E-08
  1 1007 1.28503216E-08
  1 1008 1.43456342E-08
  1 1009 1.40352269E-08
  1 1010 1.25871043E-08
  1 1011 1.40451628E-08
  1 1012 1.37831818E-08
  1 1013 1.36545819E-08
  1 1014 1.41029701E-08
  1 1015 1.46706600E-08
  1 1016 1.72298804E-08
  1 1017 1.67996487E-08
  1 1018 1.49961825E-08
  1 1019 1.30372425E-08
  1 1020 1.59868322E-08
  1 1021 1.59868322E-08
  1 1022 1.59868322E-08
  1 1023 1.59868322E-08
  1 1024 1.77569717E-08
  1 1025 1.39534947E-08
  1 1026 1.34992938E-08
  1 1027 1.88438194E-08
  1 1028 2.00902249E-08
  1 1029 1.98584529E-08
  1 1030 1.79754909E-08
  1 1031 1.56161185E-08
  1 1032 1.04441042E-08
  1 1033 9.39322097E-09
  1 1034 1.07650375E-08
  1 1035 1.05725479E-08
  1 1036 1.39476716E-08
  1 1037 2.25206668E-08
  1 1038 2.66863079E-08
  1 1039 2.57770599E-08
  1 1040 2.06386139E-08
  1 1041 1.71470012E-08
  1 1042 1.72932139E-08
  1 1043 1.83259331E-08
  1 1044 1.90665530E-08
  1 1045 1.53687393E-08
  1 1046 1.15119576E-08
  1 1047 7.43625088E-09
  1 1048 6.60850616E-09
  1 1049 8.49638870E-09
  1 1050 1.00990533E-08
  1 1051 1.31254910E-08
  1 1052 1.63286491E-08
  1 1053 1.91440013E-08
  1 1054 2.36021742E-08
  1 1055 2.25880148E-08
  1 1056 1.61595280E-08
  1 1057 1.54290694E-08
  1 1058 1.35770832E-08
  1 1059 1.11006080E-08
  1 1060 1.15908404E-08
  1 1061 1.17107031E-08
  1 1062 1.12438716E-08
  1 1063 1.29994600E-08
  1 1064 1.29994600E-08
  1 1065 1.29994600E-08
  1 1066 1.29994600E-08
  1 1067 1.56177163E-08
  1 1068 1.81243550E-08
  1 1069 1.50004492E-08
  1 1070 1.19787762E-08
  1 1071 1.30137288E-08
  1 1072 1.35077075E-08
  1 1073 1.13101843E-08
  1 1074 1.27424144E-08
  1 1075 1.29956304E-08
  1 1076 1.53090739E-08
  1 1077 1.74012937E-08
  1 1078 1.31761688E-08
  1 1079 1.24843760E-08
  1 1080 1.27579485E-08
  1 1081 1.68845303E-08
  1 1082 2.30195793E-08
  1 1083 2.21309829E-08
  1 1084 1.88677992E-08
  1 1085 1.76426801E-08
  1 1086 1.39192363E-08
  1 1087 1.03632365E-08
  1 1088 1.01149266E-08
  1 1089 8.49812277E-09
  1 1090 7.68589607E-09
  1 1091 1.12039930E-08
  1 1092 1.51304952E-08
  1 1093 1.63345081E-08
  1 1094 1.47851519E-08
  1 1095 1.55451945E-08
  1 1096 1.44213454E-08
  1 1097 1.24496987E-08
  1 1098 1.46074498E-08
  1 1099 1.46399393E-08
  1 1100 1.77657397E-08
  1 1101 1.70006333E-08
  1 1102 1.88845255E-08
  1 1103 1.60193758E-08
  1 1104 1.21170080E-08
  1 1105 1.36746341E-08
  1 1106 1.35380497E-08
  1 1107 1.14951224E-08
  1 1108 1.51227811E-08
  1 1109 1.72239456E-08
  1 1110 1.74575785E-08
  1 1111 1.63947422E-08
  1 1112 1.29892398E-08
  1 1113 1.23009570E-08
  1 1114 1.55880331E-08
  1 1115 1.65713095E-08
  1 1116 1.37595420E-08
  1 1117 1.28782910E-08
  1 1118 1.35720494E-08
  1 1119 1.39947005E-08
  1 1120 1.38203918E-08
  1 1121 1.48889202E-08
  1 1122 1.52723554E-08
  1 1123 1.79850217E-08
  1 1124 1.69974613E-08
  1 1125 1.41022684E-08
  1 1126 1.41022684E-08
  1 1127 1.41022684E-08
  1 1128 1.41022684E-08
  1 1129 1.62995194E-08
  1 1130 1.62995194E-08
  1 1131 1.62995194E-08
  1 1132 1.62995194E-08
  1 1133 1.62995194E-08
  1 1134 1.62995194E-08
  1 1135 1.62995194E-08
  1 1136 1.62995194E-08
  1 1137 1.62995194E-08
  1 1138 1.62995194E-08
  1 1139 1.62995194E-08
  1 1140 1.62995194E-08
  1 1141 1.62995194E-08
  1 1142 1.62995194E-08
  1 1143 1.62995194E-08
  1 1144 1.62995194E-08
  1 1145 1.62995194E-08
  1 1146 1.62995194E-08
  1 1147 1.62995194E-08
  1 1148 1.62995194E-08
  1 1149 1.62995194E-08
  1 1150 1.62995194E-08
  1 1151 1.62995194E-08
  1 1152 1.62995194E-08
  1 1153 1.62995194E-08
  1 1154 1.62995194E-08
  1 1155 1.62995194E-08
  1 1156 1.62995194E-08
  1 1157 1.62995194E-08
  1 1158 1.62995194E-08
  1 1159 1.62995194E-08
  1 1160 1.62995194E-08
  1 1161 1.62995194E-08
  1 1162 1.62995194E-08
  1 1163 1.62995194E-08
  1 1164 1.62995194E-08
  1 1165 1.62995194E-08
  1 1166 1.62995194E-08
  1 1167 1.62995194E-08
  1 1168 1.62995194E-08
  1 1169 1.95609689E-08
  1 1170 1.95609689E-08
  1 1171 1.95609689E-08
  1 1172 1.95609689E-08
  1 1173 1.68605506E-08
  1 1174 1.46122330E-08
  1 1175 1.82842928E-08
  1 1176 1.99012614E-08
  1 1177 1.82780202E-08
  1 1178 1.84227372E-08
  1 1179 1.76333938E-08
  1 1180 1.16130220E-08
  1 1181 8.93007323E-09
  1 1182 9.37568822E-09
  1 1183 1.03189741E-08
  1 1184 1.17666228E-08
  1 1185 1.83536105E-08
  1 1186 1.99016235E-08
  1 1187 2.46198274E-08
  1 1188 2.10642409E-08
  1 1189 1.69788027E-08
  1 1190 1.56260833E-08
  1 1191 1.53749832E-08
  1 1192 1.76714158E-08
  1 1193 1.48896774E-08
  1 1194 1.16652475E-08
  1 1195 7.96164563E-09
  1 1196 6.28988463E-09
  1 1197 7.64552490E-09
  1 1198 8.48016824E-09
  1 1199 1.17206052E-08
  1 1200 1.57680766E-08
  1 1201 1.83732480E-08
  1 1202 2.40395359E-08
  1 1203 2.38809716E-08
  1 1204 1.79039543E-08
  1 1205 1.37991056E-08
  1 1206 1.39276100E-08
  1 1207 1.10658461E-08
  1 1208 1.07226766E-08
  1 1209 1.17423885E-08
  1 1210 1.09352386E-08
  1 1211 1.09352386E-08
  1 1212 1.09352386E-08
  1 1213 1.09352386E-08
  1 1214 1.16627059E-08
  1 1215 1.16627059E-08
  1 1216 1.16627059E-08
  1 1217 1.16627059E-08
  1 1218 1.16627059E-08
  1 1219 1.16627059E-08
  1 1220 1.16627059E-08
  1 1221 1.16627059E-08
  1 1222 1.16627059E-08
  1 1223 1.16627059E-08
  1 1224 1.16627059E-08
  1 1225 1.16627059E-08
  1 1226 1.16627059E-08
  1 1227 1.16627059E-08
  1 1228 1.16627059E-08
  1 1229 1.16627059E-08
  1 1230 1.16627059E-08
  1 1231 1.16627059E-08
  1 1232 1.16627059E-08
  1 1233 1.16627059E-08
  1 1234 1.16627059E-08
  1 1235 1.16627059E-08
  1 1236 1.16627059E-08
  1 1237 1.16627059E-08
  1 1238 1.16627059E-08
  1 1239 1.16627059E-08
  1 1240 1.16627059E-08
  1 1241 1.16627059E-08
  1 1242 1.16627059E-08
  1 1243 1.16627059E-08
  1 1244 1.16627059E-08
  1 1245 1.16627059E-08
  1 1246 1.16627059E-08
  1 1247 1.16627059E-08
  1 1248 1.16627059E-08
  1 1249 1.16627059E-08
  1 1250 1.16627059E-08
  1 1251 1.16627059E-08
  1 1252 1.16627059E-08
  1 1253 1.16627059E-08
  1 1254 1.48342677E-08
  1 1255 1.48342677E-08
  1 1256 1.48342677E-08
  1 1257 1.48342677E-08
  1 1258 1.77180709E-08
  1 1259 1.65579745E-08
  1 1260 1.28178988E-08
  1 1261 1.21890670E-08
  1 1262 1.22309439E-08
  1 1263 1.15956119E-08
  1 1264 1.20006777E-08
  1 1265 1.25193597E-08
  1 1266 1.34119678E-08
  1 1267 1.50748600E-08
  1 1268 1.28429084E-08
  1 1269 1.13394585E-08
  1 1270 1.20503853E-08
  1 1271 1.36368762E-08
  1 1272 2.07051742E-08
  1 1273 2.29429823E-08
  1 1274 2.15960236E-08
  1 1275 1.79467686E-08
  1 1276 1.57730221E-08
  1 1277 1.17064503E-08
  1 1278 1.03783734E-08
  1 1279 9.02602679E-09
  1 1280 8.57242513E-09
  1 1281 9.69166426E-09
  1 1282 1.39382045E-08
  1 1283 1.68856279E-08
  1 1284 1.66959954E-08
  1 1285 1.51512497E-08
  1 1286 1.55445831E-08
  1 1287 1.23728240E-08
  1 1288 1.39818499E-08
  1 1289 1.51718060E-08