# File generated by Flopy version 3.7.0 on 06/11/2024 at 13:54:38.
BEGIN options
END options

BEGIN griddata
  strt
    INTERNAL  FACTOR  1.0
        15.00000000      15.00000000      15.00000000      15.00000000      15.00000000      15.00000000      15.00000000      15.00000000      15.00000000      15.00000000      15.00000000      15.00000000      15.00000000      15.00000000      15.00000000      15.00000000      15.00000000      15.00000000      15.00000000      15.00000000
        15.00000000      15.00000000      15.00000000      15.00000000      15.00000000      15.00000000      15.00000000      15.00000000      15.00000000      15.00000000      15.00000000      15.00000000      15.00000000      15.00000000      15.00000000      15.00000000      15.00000000      15.00000000      15.00000000      15.00000000
        15.00000000      15.00000000      15.00000000      15.00000000      15.00000000      15.00000000      15.00000000      15.00000000      15.00000000      15.00000000      15.00000000      15.00000000      15.00000000      15.00000000      15.00000000      15.00000000      15.00000000      15.00000000      15.00000000      15.00000000
        15.00000000      15.00000000      15.00000000      15.00000000      15.00000000      15.00000000      15.00000000      15.00000000      15.00000000      15.00000000      15.00000000      15.00000000      15.00000000      15.00000000      15.00000000      15.00000000      15.00000000      15.00000000      15.00000000      15.00000000
        15.00000000      15.00000000      15.00000000      15.00000000      15.00000000      15.00000000      15.00000000      15.00000000      15.00000000      15.00000000      15.00000000      15.00000000      15.00000000      15.00000000      15.00000000      15.00000000      15.00000000      15.00000000      15.00000000      15.00000000
        15.03378597      15.03561411      15.03732482      15.04072927      15.04735202      15.05796631      15.06705320      15.07385196      15.08501294      15.10155998      15.12219564      15.14098413      15.14445443      15.12791797      15.10094988      15.07918442      15.06354552      15.05071712      15.04258730      15.04058122
        15.04005378      15.03711358      15.03167658      15.02547309      15.02124116      15.01891927      15.01748564      15.01858916      15.02611949      15.04678795      15.07926435      15.11459800      15.13927777      15.15658814      15.16716720      15.16429561      15.14270675      15.11846509      15.08883340      15.06697562
        15.05805457      15.05566676      15.05919442      15.07998699      15.10067753      15.10742111      15.11162770      15.12581302      15.14029960      15.14350146      15.14221086      15.13819278      15.12879094      15.11340336      15.09873332      15.09965642      15.10443039      15.11028649      15.12125333      15.13931427
        15.15541846      15.14632546      15.12259755      15.10659153      15.10531626      15.10437071      15.11136601      15.11315140      15.10909548      15.09665303      15.07424440      15.05096199      15.03414804      15.02146187      15.01460300      15.01265247      15.01338022      15.01634457      15.02000982      15.02405987
        15.02821039      15.03524057      15.04387897      15.04888333      15.04998967      15.04510249      15.03844941      15.03344035      15.03172204      15.03502268      15.04779483      15.06800412      15.08690121      15.10773030      15.13039628      15.16926536      15.21566713      15.25172431      15.26133475      15.25909843
        15.07231301      15.07548826      15.08012256      15.09129169      15.10736810      15.12594985      15.14018316      15.15100139      15.16583337      15.19237125      15.21729745      15.22609122      15.21338326      15.18308635      15.15101422      15.12359433      15.10616302      15.09574171      15.08989959      15.08548401
        15.07976335      15.07256765      15.06270094      15.05250151      15.04302417      15.03741069      15.03694562      15.04661373      15.07677053      15.12632034      15.17768496      15.21904858      15.24817750      15.26840783      15.27968247      15.27620432      15.24923956      15.21720668      15.18981247      15.16850595
        15.15780925      15.16891130      15.20147017      15.22864179      15.24858692      15.25679589      15.27110236      15.28685615      15.29829341      15.29113298      15.27989932      15.26105623      15.24262871      15.22093839      15.20671235      15.20816024      15.21755989      15.23066640      15.24828307      15.26745995
        15.28081885      15.27686921      15.26915127      15.27181000      15.27114572      15.26083237      15.25070581      15.22748250      15.19088211      15.15121478      15.11694640      15.08587811      15.06165412      15.04551684      15.03831157      15.03686274      15.03996719      15.04397288      15.04960343      15.05811965
        15.07029049      15.08242287      15.09188332      15.09558644      15.09448174      15.08948172      15.08439308      15.08582981      15.09544660      15.11830035      15.14330052      15.16760828      15.18911141      15.22226536      15.26819634      15.31679246      15.34577911      15.36136887      15.38568373      15.40920058
        15.09827325      15.10395596      15.11549645      15.13284856      15.15264208      15.16982764      15.18917244      15.21336864      15.24075878      15.26692186      15.28214177      15.28043635      15.26664233      15.24303781      15.21466091      15.18616026      15.16649624      15.15370153      15.14118841      15.12719025
        15.11491901      15.10383469      15.09103872      15.07873371      15.07059757      15.06934751      15.08029897      15.10483134      15.15120645      15.20498735      15.24942055      15.28712795      15.32483224      15.35453011      15.37120906      15.38109432      15.37494440      15.36157680      15.36538494      15.36935246
        15.36895118      15.38524960      15.41181243      15.41654824      15.41804632      15.41415768      15.40878946      15.39531312      15.37799059      15.36085016      15.34309384      15.32348925      15.30354305      15.28719694      15.27930729      15.27827546      15.28722364      15.30806240      15.33336692      15.35817990
        15.37588426      15.39095043      15.40372207      15.40763346      15.39174610      15.36410477      15.32817281      15.28739358      15.24040790      15.19499955      15.15582275      15.12541593      15.10075959      15.08331653      15.07384919      15.07293073      15.07880099      15.08528385      15.09359988      15.10305538
        15.11363994      15.11960090      15.12219490      15.12288275      15.12288972      15.12632005      15.14032128      15.17139113      15.21580239      15.25974392      15.28594598      15.31744095      15.36194524      15.40511611      15.45039259      15.48186027      15.50218142      15.52181606      15.54808898      15.57017367
        15.12429991      15.12950754      15.14327852      15.16474010      15.18983864      15.22061814      15.25440903      15.28555525      15.31419212      15.33366712      15.34040390      15.33680522      15.32209826      15.30287334      15.27852682      15.24747097      15.21870723      15.19720508      15.17812659      15.16036208
        15.14436059      15.13275761      15.12288450      15.11647359      15.11558699      15.12444392      15.14273080      15.17143859      15.21405297      15.25962282      15.31189659      15.37183828      15.42076702      15.45767680      15.48853602      15.51277727      15.52913606      15.53728561      15.55463490      15.56780367
        15.56702079      15.56042256      15.55282091      15.53945470      15.52187989      15.50076374      15.47470436      15.44407857      15.41404252      15.38976594      15.37122000      15.35553059      15.34196624      15.33358047      15.33178073      15.34061538      15.36156902      15.38801628      15.41815980      15.44405201
        15.46330753      15.47716381      15.47621315      15.46380518      15.44284315      15.41010445      15.36901663      15.32712119      15.28685786      15.24830062      15.21255629      15.18481379      15.16249479      15.14377155      15.13233772      15.12866940      15.13081103      15.13388020      15.13608125      15.13681664
        15.13594473      15.13505994      15.13492160      15.13788704      15.14744832      15.17414723      15.22419657      15.30063157      15.38406578      15.45551574      15.50615797      15.54991073      15.59737575      15.62138922      15.63547186      15.64314462      15.65096418      15.65429499      15.64928388      15.64496421
        15.15906827      15.17274131      15.20075873      15.23598901      15.26560362      15.29873795      15.32954802      15.35195543      15.36848102      15.37566417      15.37429750      15.36787503      15.35531988      15.33590419      15.31019429      15.27905735      15.24783813      15.22231451      15.20258950      15.18735168
        15.17660745      15.17214029      15.17216902      15.18013078      15.19290162      15.20965774      15.22805951      15.26414535      15.32357880      15.39769378      15.46487290      15.51348272      15.54250876      15.57002327      15.60104728      15.62196899      15.63809643      15.64651222      15.64679695      15.64431359
        15.63745466      15.62288136      15.60862393      15.59280693      15.57249162      15.54923348      15.52449722      15.49542799      15.46389042      15.44158304      15.42797636      15.42166236      15.42561774      15.43179129      15.44245369      15.45882419      15.47448797      15.48785705      15.50295197      15.51185435
        15.51449657      15.51063282      15.50205007      15.48654678      15.46476467      15.43709333      15.40457217      15.36770511      15.33498698      15.30925970      15.28563877      15.26323513      15.24206837      15.21954538      15.20351483      15.18855753      15.17499723      15.16525078      15.15748220      15.15219557
        15.14846924      15.14705945      15.15012068      15.16087071      15.19099852      15.25306007      15.35821233      15.47015531      15.56871968      15.64405594      15.69385146      15.71887866      15.73372726      15.73357595      15.72440536      15.71166072      15.69843454      15.68594474      15.67471930      15.66631554
        15.24577300      15.26648763      15.30421204      15.33703705      15.35423994      15.36672196      15.37791475      15.38652887      15.39029633      15.38957206      15.38539893      15.37829897      15.36715785      15.34920642      15.32420833      15.29425721      15.26503327      15.24024405      15.22069293      15.20806285
        15.20517502      15.21082988      15.22345844      15.24540871      15.27683739      15.30994136      15.35402095      15.41944555      15.49787986      15.56553776      15.60622976      15.62606902      15.63676199      15.64856016      15.66026583      15.66773293      15.67098285      15.67108440      15.66888701      15.66411295
        15.65679610      15.64595990      15.63278404      15.61836014      15.60258391      15.58193236      15.55975934      15.54434334      15.53125739      15.52566414      15.53054452      15.53814304      15.54955546      15.55789759      15.56165864      15.56485691      15.56440743      15.55931988      15.55179804      15.54483097
        15.53766269      15.53022203      15.52070019      15.50722363      15.48713868      15.46322128      15.43580622      15.40625401      15.37931511      15.35999729      15.34468794      15.32888482      15.31175177      15.28634842      15.25700797      15.22916152      15.20391012      15.18545255      15.17471326      15.17099835
        15.17405811      15.18245844      15.19582865      15.22606321      15.29222643      15.40317785      15.53056203      15.63050287      15.70279206      15.74444759      15.76711425      15.77397147      15.77082023      15.76070693      15.74578940      15.72871562      15.71309382      15.70048512      15.69170123      15.68795686
        15.38345748      15.39517383      15.40979797      15.41139183      15.40783736      15.40353730      15.39987075      15.40008045      15.40008747      15.39840630      15.39415506      15.38628490      15.37459327      15.35802209      15.33548879      15.30568793      15.27353482      15.24671763      15.22686058      15.21702076
        15.21961460      15.23468773      15.26247812      15.30212937      15.34786127      15.39646651      15.46384785      15.54291503      15.60641871      15.64205748      15.65873293      15.66674847      15.67107896      15.67413016      15.67623514      15.67708309      15.67721617      15.67691371      15.67590558      15.67345012
        15.66869225      15.66059320      15.64907469      15.63559571      15.62303527      15.61283906      15.60327082      15.59914379      15.60262761      15.60847463      15.61714225      15.62519932      15.62795892      15.62864531      15.62542635      15.61743693      15.60651329      15.59218009      15.57683236      15.56440796
        15.55527073      15.54963268      15.54530109      15.53518403      15.51655393      15.48996622      15.46317749      15.43705275      15.41296002      15.39394023      15.37903897      15.36501908      15.35037751      15.32924362      15.29743240      15.26556658      15.24128200      15.22897246      15.23199776      15.23738057
        15.24154036      15.25862627      15.29478190      15.35528142      15.45302046      15.56956040      15.66199857      15.72311794      15.75845135      15.77660287      15.78713742      15.79077159      15.78712684      15.77821048      15.76539744      15.75105040      15.73894831      15.73026624      15.72305490      15.72112640
        15.52669337      15.51345104      15.49063678      15.47018029      15.45527219      15.44291810      15.43223008      15.42360463      15.41701617      15.41107058      15.40464969      15.39617302      15.38468466      15.36755281      15.34348518      15.31295820      15.27789326      15.24436117      15.21854140      15.20392344
        15.21724124      15.25358901      15.30236856      15.35339094      15.40463940      15.46535358      15.54104069      15.60721402      15.64483223      15.66164571      15.66884390      15.67309700      15.67596279      15.67793475      15.67915396      15.67993629      15.68058379      15.68127470      15.68168375      15.68139097
        15.67889290      15.67337602      15.66481752      15.65580928      15.64831856      15.64584277      15.64896253      15.65321323      15.65905034      15.66722621      15.67516950      15.67933564      15.67618817      15.67084533      15.66427362      15.65130523      15.63435507      15.61690616      15.60105123      15.58845072
        15.58241466      15.58358909      15.58688970      15.58096177      15.56294060      15.53159729      15.49641571      15.46476340      15.43616880      15.41615018      15.40174280      15.38689532      15.37280616      15.35765461      15.33770177      15.31526474      15.30143696      15.30454768      15.31773701      15.32495402
        15.33250236      15.35617455      15.40846641      15.48959993      15.58771329      15.67058766      15.72148801      15.75290033      15.77746874      15.79492820      15.80568877      15.80838374      15.80473710      15.79828014      15.79031715      15.78218417      15.77397519      15.76706639      15.76075885      15.75850987
        15.61734639      15.59603138      15.56098468      15.52999312      15.50868832      15.49205338      15.47397081      15.45477629      15.43876653      15.42851999      15.42025399      15.41047992      15.39787477      15.37978699      15.35464743      15.32022979      15.27626540      15.22525843      15.16890802      15.13930292
        15.18144168      15.25810752      15.33073823      15.39542993      15.46477390      15.53762666      15.60051072      15.63749092      15.65445163      15.66296992      15.66916144      15.67353469      15.67662207      15.67911780      15.68097360      15.68240543      15.68389167      15.68565923      15.68747099      15.68917630
        15.68970210      15.68797084      15.68604540      15.68745440      15.68854383      15.69011687      15.69489845      15.70287099      15.71585383      15.72735305      15.73036752      15.72600277      15.71826870      15.70646167      15.69159094      15.67693091      15.66199212      15.64701127      15.63036605      15.61906481
        15.63061090      15.65836976      15.66926373      15.65894073      15.62995159      15.59113150      15.54597533      15.50768224      15.48325558      15.46775847      15.45019354      15.43583705      15.42658233      15.42250293      15.41142249      15.40012222      15.40314638      15.40590484      15.40717908      15.40833714
        15.42976105      15.47282183      15.53241496      15.60468861      15.67272560      15.72236708      15.75818932      15.78714208      15.80887678      15.82288700      15.82960100      15.83024148      15.82716350      15.82214277      15.81601379      15.80954416      15.80300197      15.79868439      15.80113186      15.80534493
        15.67356147      15.65052738      15.61963172      15.58546208      15.55338032      15.52690427      15.50591568      15.48617653      15.46929152      15.45790159      15.44545644      15.43060611      15.41365639      15.39249985      15.36382774      15.32427923      15.27174591      15.19464354      15.06906945      15.02104593
        15.02164688      14.89593349      14.89632403      15.08505886      15.24266788      15.35341691      15.44283966      15.52307122      15.58467554      15.62272750      15.64266623      15.65363367      15.66100170      15.66745287      15.67290952      15.67697080      15.67992054      15.68231321      15.68503234      15.68854888
        15.69238039      15.69617577      15.70013363      15.70490430      15.71128338      15.71940190      15.72795018      15.73506952      15.74128568      15.75208790      15.76803884      15.78018797      15.78153117      15.77266195      15.76076141      15.74899346      15.73576838      15.72220447      15.71168093      15.70393294
        15.69183009      15.66210146      15.62915051      15.63214479      15.60031715      15.61040277      15.70422064      15.77866495      15.79237915      15.77054558      15.72800203      15.68753478      15.64956012      15.61850480      15.60082044      15.59571880      15.60281799      15.60470010      15.60913094      15.60795558
        15.59880673      15.58855991      15.57630886      15.54550931      15.52241093      15.52613263      15.55771200      15.60311879      15.64664512      15.69283690      15.73902965      15.77430406      15.80192126      15.82360683      15.83884412      15.84783731      15.85058486      15.84934772      15.84527850      15.84012573
        15.83576825      15.83092007      15.82882012      15.83310698      15.84397487      15.85091457      15.71724843      15.69622418      15.66423948      15.63143684      15.59921422      15.56928238      15.54160679      15.51766313      15.49672168      15.47812169      15.46216087      15.44515790      15.42490450      15.39976540
        15.36892672      15.33027812      15.27924329      15.19801526      15.06893576      14.94651755      15.09661704      14.99945031      14.78107254      14.65455412      14.70754199      14.51063274      14.38575934      14.40807753      14.18815217      14.04365055      14.05419073      13.51305376      14.67166550      14.79007513
        14.44084633      14.56737631      14.20161315      14.34212129      14.05938921      14.30321385      14.51252318      14.73490554      14.76613274      14.48805103      14.22525562      14.07116265      14.37505298      14.32669530      14.63287861      14.55912563      14.90520311      14.82709926      14.21954381      14.36856176
        14.37889551      14.45355809      14.56249059      14.58408218      14.66713238      14.78320149      14.83247412      14.90427886      14.94724726      15.07814250      14.98904358      15.09646475      15.23544539      15.37558698      15.47946287      15.55439790      15.60113288      15.62673127      15.64106183      15.65087272
        15.65869547      15.66572197      15.67211451      15.67699486      15.68085112      15.68544253      15.69182085      15.69846212      15.70396755      15.71013576      15.71813533      15.72758347      15.73933521      15.75305250      15.76578903      15.77890570      15.79438612      15.81034666      15.82031502      15.81965320
        15.81212213      15.80247501      15.79189076      15.78224018      15.77453156      15.77263239      15.77924845      15.79230481      15.79876084      15.73506686      15.67070598      15.82082663      15.78244041      15.55950683      15.49223305      15.53111101      15.40822900      15.32829380      15.34992779      15.19866196
        15.09918074      15.11066934      14.72877433      15.51987544      15.61417551      15.37699421      15.47339329      15.21704385      15.32085531      15.12391535      15.30101384      15.44982496      15.60610417      15.61815260      15.43011725      15.24459731      15.13819480      15.36087725      15.33061169      15.55396467
        15.51119256      15.77097957      15.73881446      15.24842886      15.35880769      15.37229769      15.42805232      15.50678222      15.53670414      15.59958140      15.67915133      15.75305759      15.79872788      15.74004473      15.81629234      15.82540944      15.86758928      15.88040517      15.88555099      15.87040532
        15.84293591      15.81657389      15.80177367      15.79518656      15.79215577      15.80235563      15.82200060      15.82863066      15.82887469      15.81674749      15.79835031      15.77613383      15.74264985      15.69926492      15.67236833      15.68734051      15.70730564      15.72316179      15.74218183      15.76969329
        15.79514351      15.81697722      15.83681045      15.85470881      15.86495616      15.86860718      15.86851797      15.86600516      15.86187279      15.85609909      15.85215957      15.85182962      15.85694895      15.86752535      15.87583133      15.87819772      15.74511227      15.73259003      15.70710225      15.67654577
        15.64447637      15.61165165      15.57878939      15.54706886      15.51967050      15.49506238      15.47500071      15.45427629      15.43150652      15.40408416      15.37158567      15.33676069      15.29817209      15.24219157      15.14761510      15.03182995      15.02315238      15.10602425      15.09942928      15.13159305
        15.28069718      15.41301568      15.50422535      15.56616557      15.60345315      15.62534839      15.63845550      15.64779061      15.65612548      15.66394042      15.67196863      15.68069395      15.68987771      15.69983817      15.70916709      15.71801118      15.72765779      15.73665017      15.74477085      15.75508136
        15.77129209      15.79274842      15.81277399      15.82915634      15.84375810      15.85173987      15.85062547      15.84473514      15.83827284      15.83492278      15.83502733      15.83746382      15.84406658      15.85603247      15.87667514      15.90063860      15.91538539      15.91140480      15.88358900      15.88939261
        15.91873358      15.92090620      15.92026750      15.93136748      15.93640712      15.93851189      15.93847452      15.93457736      15.93574138      15.94311396      15.94751378      15.95435521      15.95299510      15.94444503      15.92695636      15.90706742      15.88314230      15.85706759      15.82985341      15.81192636
        15.80984675      15.82188630      15.82579477      15.82579535      15.83321808      15.84612178      15.86061173      15.87450843      15.88597496      15.89336038      15.89412551      15.89210257      15.88869356      15.88543443      15.88405972      15.88270695      15.88308093      15.88671968      15.89099604      15.89504867
        15.89439544      15.89234874      15.76446416      15.75485194      15.73704502      15.71157949      15.68132976      15.64469401      15.60593354      15.56982523      15.53968462      15.51445264      15.49195087      15.46818197      15.43966554      15.40737910      15.37721705      15.34924852      15.31844376      15.28425583
        15.24088854      15.21557641      15.26261246      15.36520689      15.45522498      15.51875834      15.56581111      15.59807822      15.61916514      15.63403145      15.64526574      15.65487183      15.66477650      15.67630581      15.68996054      15.70396345      15.71752239      15.73086713      15.74459252      15.75716295
        15.76788467      15.78069613      15.80058160      15.82398725      15.84374515      15.86013116      15.87207374      15.87963043      15.88048740      15.87769694      15.87582977      15.88006210      15.89320510      15.91012606      15.92077254      15.93139407      15.94168818      15.95318958      15.96213124      15.96271796
        15.95663090      15.95149648      15.95500904      15.96658285      15.97895619      15.99013860      16.00075638      16.00840475      16.01276717      16.01611520      16.01198187      16.00338516      15.99137349      15.97776448      15.96007859      15.93983831      15.91961103      15.90040669      15.88630184      15.88340020
        15.88713811      15.89005533      15.89455472      15.89948086      15.90897166      15.91874305      15.92849776      15.93226558      15.93018105      15.92544859      15.92306056      15.91962556      15.91592525      15.91342528      15.91248421      15.91315713      15.91417708      15.91495232      15.91283332      15.90909018
        15.90468503      15.90163821      15.79024615      15.77899628      15.75727809      15.72922995      15.69688647      15.65850177      15.61880510      15.58361560      15.55381062      15.52795695      15.50320540      15.47676327      15.44951171      15.42177191      15.39403786      15.37137526      15.34896945      15.32547311
        15.30659789      15.31242963      15.35422409      15.41211062      15.46524301      15.51309474      15.55687909      15.58997662      15.61313400      15.62989676      15.64289629      15.65496898      15.66714941      15.68238892      15.69989001      15.71762774      15.73541967      15.75393707      15.77014150      15.78403683
        15.79910928      15.81872544      15.84240926      15.86196131      15.87706267      15.89160085      15.90126239      15.90662500      15.91000414      15.91585512      15.92659941      15.94285591      15.96107193      15.97509945      15.98033040      15.98358236      15.98525063      15.98578259      15.98502472      15.98315147
        15.98048792      15.98066511      15.98604916      15.99749697      16.00927775      16.02375032      16.03634902      16.04318726      16.04457105      16.04070671      16.03223517      16.02149305      16.00873123      15.99441988      15.98052218      15.96657787      15.95321565      15.93970876      15.93138424      15.92846321
        15.93303059      15.93935084      15.94565225      15.95235795      15.95815973      15.96330525      15.96596172      15.96554117      15.96243218      15.95712723      15.95187758      15.94627311      15.94194748      15.93937539      15.93576273      15.93219054      15.92810572      15.92403215      15.91971893      15.91532038
        15.91136391      15.90901867      15.79904397      15.78402076      15.75897022      15.72948196      15.69711931      15.66536374      15.63373713      15.59771762      15.56173641      15.53164010      15.50785490      15.48533154      15.46120470      15.43801830      15.41561654      15.39519684      15.37882677      15.36580040
        15.35808762      15.36507891      15.39163360      15.42764718      15.46482603      15.50051929      15.53846892      15.57526776      15.60259742      15.62213460      15.63687737      15.65226479      15.66886524      15.68781561      15.70973804      15.73231750      15.75361794      15.77298773      15.78889536      15.80422954
        15.82236084      15.84306049      15.86497460      15.88434827      15.90092538      15.91409320      15.92427350      15.93465877      15.94771904      15.96268447      15.97727507      15.98845312      15.99534623      15.99861264      15.99977718      15.99922534      15.99918623      15.99941592      15.99893686      15.99884316
        16.00032455      16.00497850      16.01142178      16.02045630      16.03325808      16.04540407      16.05221622      16.05499942      16.05417503      16.04944683      16.04139080      16.03182986      16.02126599      16.00915111      15.99644285      15.98569933      15.97807210      15.97143383      15.96841452      15.97006800
        15.97456815      15.97873912      15.98141540      15.98372990      15.98566335      15.98737407      15.98844643      15.99004839      15.98804316      15.98246612      15.97422201      15.96636786      15.95911983      15.95325108      15.94737960      15.94155534      15.93536276      15.92958188      15.92504973      15.92121082
        15.91772827      15.91552976      15.78983888      15.77789442      15.75574785      15.72861226      15.69829484      15.66398846      15.62587834      15.58710830      15.55511941      15.53219265      15.51294712      15.49408897      15.47390455      15.45378597      15.43585669      15.41950033      15.40533245      15.39454198
        15.39007037      15.39472944      15.40842093      15.42865217      15.45546303      15.48655343      15.51785375      15.55022385      15.58030023      15.60329765      15.62159771      15.64136605      15.66339587      15.68775215      15.71408462      15.73837168      15.75952813      15.77856496      15.79572978      15.81435729