# File generated by Flopy version 3.6.0 on 09/25/2024 at 16:43:16.
BEGIN griddata
  strt
    INTERNAL  FACTOR  1.0
        15.00000000      15.00000000      15.00000000      15.00000000      15.00000000      15.00000000      15.00000000      15.00000000      15.00000000      15.00000000      15.00000000      15.00000000      15.00000000      15.00000000      15.00000000      15.00000000      15.00000000      15.00000000      15.00000000      15.00000000
        15.00000000      15.00000000      15.00000000      15.00000000      15.00000000      15.00000000      15.00000000      15.00000000      15.00000000      15.00000000      15.00000000      15.00000000      15.00000000      15.00000000      15.00000000      15.00000000      15.00000000      15.00000000      15.00000000      15.00000000
        15.00000000      15.00000000      15.00000000      15.00000000      15.00000000      15.00000000      15.00000000      15.00000000      15.00000000      15.00000000      15.00000000      15.00000000      15.00000000      15.00000000      15.00000000      15.00000000      15.00000000      15.00000000      15.00000000      15.00000000
        15.00000000      15.00000000      15.00000000      15.00000000      15.00000000      15.00000000      15.00000000      15.00000000      15.00000000      15.00000000      15.00000000      15.00000000      15.00000000      15.00000000      15.00000000      15.00000000      15.00000000      15.00000000      15.00000000      15.00000000
        15.00000000      15.00000000      15.00000000      15.00000000      15.00000000      15.00000000      15.00000000      15.00000000      15.00000000      15.00000000      15.00000000      15.00000000      15.00000000      15.00000000      15.00000000      15.00000000      15.00000000      15.00000000      15.00000000      15.00000000
        15.11250374      15.11176397      15.11124015      15.11027146      15.10680964      15.10093537      15.09188590      15.08336202      15.07491183      15.06545591      15.05749603      15.04950975      15.04288716      15.03861698      15.03513138      15.03014145      15.02414411      15.01822586      15.01362682      15.01045926
        15.00795179      15.00617890      15.00509951      15.00454611      15.00419040      15.00397881      15.00388749      15.00388345      15.00396088      15.00405336      15.00408701      15.00410795      15.00406055      15.00398185      15.00395961      15.00399223      15.00400936      15.00415555      15.00434709      15.00464495
        15.00510490      15.00562332      15.00619792      15.00696054      15.00780354      15.00851735      15.00922598      15.01008692      15.01104396      15.01185337      15.01239691      15.01294649      15.01362967      15.01438982      15.01508489      15.01571831      15.01635410      15.01741003      15.01891786      15.02044877
        15.02229607      15.02490555      15.02758018      15.02971025      15.03045621      15.03009573      15.02934644      15.02813870      15.02602996      15.02338500      15.02125929      15.01937860      15.01785887      15.01714182      15.01666792      15.01641562      15.01679680      15.01753944      15.01842698      15.01934340
        15.01974986      15.01901107      15.01780969      15.01602123      15.01448586      15.01356144      15.01320966      15.01313831      15.01287024      15.01274537      15.01258628      15.01261744      15.01299679      15.01341857      15.01409417      15.01495547      15.01550807      15.01576158      15.01589473      15.01570974
        15.21523338      15.21382643      15.21097077      15.20884518      15.20578908      15.19804986      15.18277168      15.16587074      15.15014528      15.13316194      15.11682602      15.10238330      15.08955228      15.07976126      15.07208789      15.06277383      15.05153350      15.04021956      15.03020016      15.02293983
        15.01755103      15.01374794      15.01133088      15.00997328      15.00917726      15.00864889      15.00839978      15.00835591      15.00846246      15.00864614      15.00875667      15.00883322      15.00880267      15.00862978      15.00846221      15.00852936      15.00866083      15.00891711      15.00937040      15.00993825
        15.01069111      15.01172845      15.01285126      15.01410542      15.01560486      15.01699094      15.01838724      15.01993628      15.02158027      15.02286326      15.02371375      15.02468443      15.02594773      15.02730748      15.02868188      15.02993584      15.03126658      15.03321798      15.03615878      15.03957475
        15.04327812      15.04757241      15.05199156      15.05574744      15.05799018      15.05793825      15.05681826      15.05522630      15.05220159      15.04835424      15.04464227      15.04119030      15.03827734      15.03653382      15.03561601      15.03522600      15.03567135      15.03640389      15.03739709      15.03869204
        15.03939648      15.03875568      15.03708728      15.03454130      15.03162696      15.02929053      15.02788115      15.02744411      15.02708073      15.02666257      15.02626547      15.02600767      15.02644344      15.02709814      15.02815898      15.02965088      15.03084758      15.03161625      15.03189920      15.03180429
        15.30712655      15.30601877      15.30181858      15.29875129      15.29535995      15.28710370      15.26978055      15.24687735      15.22483989      15.20274152      15.18019165      15.16007742      15.14222702      15.12628427      15.11350672      15.09994156      15.08325281      15.06632928      15.05094929      15.03861362
        15.02956504      15.02315076      15.01913166      15.01667882      15.01526176      15.01434240      15.01376587      15.01361910      15.01376716      15.01400436      15.01420969      15.01429697      15.01427065      15.01405158      15.01379761      15.01380925      15.01408607      15.01448219      15.01512656      15.01589509
        15.01681706      15.01812160      15.01962123      15.02127572      15.02318627      15.02525503      15.02735298      15.02941877      15.03136894      15.03291361      15.03411313      15.03539324      15.03699840      15.03890285      15.04091353      15.04280648      15.04491055      15.04788647      15.05201761      15.05709605
        15.06232951      15.06793295      15.07389499      15.07913866      15.08298262      15.08416635      15.08347455      15.08187379      15.07896962      15.07458694      15.06955246      15.06492359      15.06059615      15.05751764      15.05593969      15.05542196      15.05574256      15.05612405      15.05675433      15.05791152
        15.05870683      15.05838551      15.05667439      15.05395516      15.05017991      15.04659005      15.04409560      15.04287313      15.04233159      15.04173804      15.04110798      15.04059328      15.04081848      15.04152614      15.04275780      15.04438474      15.04601507      15.04716454      15.04759753      15.04778774
        15.38880458      15.38883897      15.38611441      15.38353595      15.37931264      15.36937680      15.35019114      15.32404770      15.29750923      15.27242191      15.24755399      15.22365696      15.20157542      15.18108436      15.16250553      15.14450788      15.12200606      15.09818605      15.07710830      15.05892579
        15.04495258      15.03518637      15.02899546      15.02516652      15.02286601      15.02146238      15.02051638      15.02009000      15.02010246      15.02036686      15.02070201      15.02075644      15.02064704      15.02042857      15.02017654      15.02009193      15.02038672      15.02092082      15.02158901      15.02242900
        15.02348208      15.02490289      15.02666697      15.02855762      15.03076478      15.03338251      15.03604257      15.03834897      15.04039347      15.04214358      15.04364819      15.04521389      15.04715280      15.04957094      15.05219170      15.05474406      15.05779172      15.06182541      15.06680553      15.07282944
        15.07950780      15.08666187      15.09402796      15.10089107      15.10627506      15.10923603      15.10970459      15.10885768      15.10657522      15.10221185      15.09606439      15.09004088      15.08439661      15.08001593      15.07738809      15.07633320      15.07618120      15.07611776      15.07623965      15.07684424
        15.07756931      15.07741456      15.07600887      15.07327169      15.06933827      15.06498900      15.06172093      15.05949312      15.05839847      15.05789416      15.05747857      15.05707564      15.05705121      15.05748824      15.05825396      15.05951680      15.06118515      15.06253880      15.06325237      15.06368842
        15.46279711      15.46293971      15.46280119      15.46088773      15.45603388      15.44452400      15.42450142      15.39664843      15.36769344      15.34065718      15.31500979      15.28947002      15.26415076      15.24136032      15.21871699      15.19623654      15.16870488      15.13771371      15.10971046      15.08531334
        15.06499083      15.05051664      15.04145760      15.03576074      15.03224645      15.03017551      15.02888772      15.02813942      15.02789269      15.02801920      15.02840138      15.02841901      15.02811367      15.02784309      15.02761997      15.02748479      15.02770431      15.02822614      15.02883508      15.02958450
        15.03066628      15.03219062      15.03410959      15.03617889      15.03859431      15.04147488      15.04431831      15.04669221      15.04884317      15.05073777      15.05253830      15.05445531      15.05681640      15.05974181      15.06297507      15.06623210      15.07026235      15.07520230      15.08090006      15.08763092
        15.09546176      15.10400097      15.11288504      15.12141931      15.12867523      15.13330786      15.13548103      15.13607522      15.13495439      15.13136482      15.12485262      15.11736278      15.11029305      15.10441785      15.10032403      15.09808315      15.09720137      15.09664170      15.09627700      15.09624995
        15.09653204      15.09657825      15.09573942      15.09339871      15.08958121      15.08513641      15.08098624      15.07778517      15.07587955      15.07536388      15.07537456      15.07530847      15.07519436      15.07520491      15.07514887      15.07566001      15.07692503      15.07840474      15.07948247      15.07986371
        15.52715123      15.52746517      15.52827095      15.52663274      15.52118273      15.50941065      15.49068905      15.46412732      15.43448718      15.40534523      15.37830380      15.35266841      15.32591653      15.30146068      15.27789146      15.25221360      15.22125354      15.18503136      15.15001678      15.11891677
        15.09166649      15.07060656      15.05736209      15.04918765      15.04402508      15.04097237      15.03926940      15.03826189      15.03777128      15.03762398      15.03786889      15.03774652      15.03711722      15.03663258      15.03630945      15.03609421      15.03628192      15.03675168      15.03731763      15.03793150
        15.03890585      15.04036707      15.04229243      15.04452258      15.04702512      15.04986424      15.05248347      15.05486217      15.05699738      15.05898673      15.06116556      15.06350920      15.06626630      15.06957586      15.07327684      15.07733125      15.08232157      15.08832811      15.09488885      15.10220792
        15.11060666      15.12018316      15.13049250      15.14097310      15.15032568      15.15734650      15.16186004      15.16447604      15.16523288      15.16290722      15.15685108      15.14769019      15.13890838      15.13157235      15.12572222      15.12162695      15.11969577      15.11871746      15.11792827      15.11742362
        15.11700734      15.11687071      15.11664161      15.11531494      15.11193873      15.10746123      15.10243144      15.09805217      15.09503908      15.09410199      15.09432338      15.09465688      15.09466397      15.09437507      15.09387174      15.09346627      15.09385827      15.09518083      15.09643963      15.09693856
        15.58245124      15.58300723      15.58357041      15.58163598      15.57621655      15.56549600      15.54757066      15.52323576      15.49490744      15.46492369      15.43575637      15.40962563      15.38387288      15.35810721      15.33476370      15.30897733      15.27668520      15.23786910      15.19780297      15.16014726
        15.12601235      15.09746974      15.07808281      15.06629935      15.05897498      15.05449451      15.05195775      15.05059981      15.04996672      15.04967389      15.04957498      15.04911248      15.04809108      15.04706080      15.04651695      15.04613943      15.04620945      15.04659741      15.04711473      15.04767821
        15.04844375      15.04959896      15.05132081      15.05350877      15.05604606      15.05864968      15.06096699      15.06319750      15.06520597      15.06733617      15.06968434      15.07232699      15.07535567      15.07895999      15.08297007      15.08776404      15.09377041      15.10072470      15.10803423      15.11583998
        15.12465858      15.13494609      15.14640403      15.15863419      15.17022726      15.18066775      15.18827027      15.19361059      15.19710312      15.19669202      15.19183755      15.18203768      15.17042264      15.16102709      15.15338904      15.14737000      15.14384555      15.14231382      15.14111482      15.14014633
        15.13911674      15.13869002      15.13883989      15.13839699      15.13625626      15.13183198      15.12624609      15.12056841      15.11616050      15.11412536      15.11414796      15.11476065      15.11502778      15.11471251      15.11409765      15.11304729      15.11246062      15.11297889      15.11423764      15.11495009
        15.63183218      15.63151237      15.63103558      15.62852741      15.62355720      15.61392019      15.59674198      15.57328014      15.54635832      15.51771226      15.48820693      15.46043820      15.43569418      15.41000538      15.38598539      15.36142552      15.33069910      15.29189434      15.24971608      15.20798231
        15.16793135      15.13203615      15.10500307      15.08808494      15.07749224      15.07113191      15.06716548      15.06502070      15.06423387      15.06393770      15.06344233      15.06265072      15.06126556      15.05962278      15.05869814      15.05804534      15.05770663      15.05776118      15.05807203      15.05851247
        15.05899812      15.05978189      15.06105941      15.06292718      15.06535490      15.06770853      15.06977213      15.07168803      15.07363417      15.07576872      15.07808898      15.08083697      15.08409413      15.08794638      15.09224806      15.09762625      15.10432177      15.11180947      15.11952389      15.12772297
        15.13702483      15.14795414      15.16048524      15.17425451      15.18841061      15.20193971      15.21309677      15.22190287      15.22902532      15.23198593      15.22942034      15.22089406      15.20693978      15.19387709      15.18386295      15.17566145      15.17003639      15.16707924      15.16537456      15.16359949
        15.16224353      15.16197611      15.16235080      15.16217921      15.16069603      15.15706866      15.15158701      15.14532344      15.13993286      15.13641067      15.13573374      15.13623647      15.13658758      15.13619555      15.13516505      15.13366281      15.13247377      15.13186360      15.13263104      15.13344847
        15.67506506      15.67401861      15.67246449      15.66956715      15.66487890      15.65558590      15.63993175      15.61713725      15.59087875      15.56343248      15.53537646      15.50695064      15.48129662      15.45618607      15.43139432      15.40723113      15.37918866      15.34328092      15.30139324      15.25823051
        15.21511737      15.17331052      15.13870443      15.11512176      15.09997358      15.09078761      15.08508645      15.08159711      15.08017957      15.07975884      15.07915816      15.07831317      15.07694195      15.07501814      15.07345798      15.07253845      15.07160714      15.07093413      15.07060275      15.07064339
        15.07076041      15.07099535      15.07175281      15.07308631      15.07514694      15.07715505      15.07882699      15.08047042      15.08235632      15.08437654      15.08672494      15.08945515      15.09288051      15.09696371      15.10155279      15.10727092      15.11413425      15.12162578      15.12944761      15.13804189
        15.14789382      15.15945690      15.17310076      15.18849690      15.20504366      15.22131348      15.23593393      15.24890758      15.26036942      15.26777914      15.26858915      15.26263573      15.24896120      15.23180690      15.21786305      15.20702062      15.19892346      15.19378120      15.19087220      15.18806919
        15.18642330      15.18617431      15.18636182      15.18612509      15.18456505      15.18177311      15.17711930      15.17122771      15.16528302      15.16085924      15.15910651      15.15929822      15.15921156      15.15842384      15.15679727      15.15480285      15.15295151      15.15137763      15.15099941      15.15138900
        15.71378655      15.71236973      15.71060058      15.70762102      15.70240543      15.69363809      15.67987907      15.65905156      15.63368755      15.60649123      15.57959021      15.55214267      15.52458082      15.49869724      15.47313296      15.44830038      15.42187939      15.39019119      15.35145413      15.30909520
        15.26513104      15.21977407      15.17865041      15.14765945      15.12684681      15.11359860      15.10566193      15.10044935      15.09787319      15.09701777      15.09655432      15.09587741      15.09479652      15.09283845      15.09075366      15.08951033      15.08813294      15.08648655      15.08514471      15.08439749
        15.08382045      15.08329590      15.08340812      15.08410704      15.08541788      15.08680774      15.08803689      15.08955337      15.09132281      15.09323775      15.09551267      15.09825253      15.10178161      15.10610561      15.11103081      15.11682357      15.12344161      15.13062627      15.13858868      15.14753700
        15.15780183      15.16989320      15.18456612      15.20184461      15.22069586      15.23965150      15.25769853      15.27505188      15.29130534      15.30378720      15.30900148      15.30667323      15.29516641      15.27573421      15.25691581      15.24248291      15.23136271      15.22333448      15.21847225      15.21476760
        15.21224023      15.21130643      15.21087553      15.21027953      15.20891796      15.20641087      15.20271796      15.19768354      15.19155525      15.18651076      15.18377597      15.18320586      15.18265890      15.18141174      15.17954551      15.17728658      15.17452928      15.17188335      15.17009220      15.16922915
        15.74785956      15.74635145      15.74465243      15.74167121      15.73613440      15.72790020      15.71586721      15.69870184      15.67637998      15.64983975      15.62251331      15.59638908      15.56839868      15.54023329      15.51279307      15.48618312      15.45949261      15.43064419      15.39604957      15.35667775
        15.31433358      15.26799625      15.22252434      15.18478243      15.15743307      15.13924816      15.12812677      15.12109739      15.11698063      15.11543475      15.11494401      15.11443649      15.11354418      15.11189110      15.10967187      15.10790905      15.10634132      15.10411480      15.10174392      15.09990069
        15.09831975      15.09696226      15.09591081      15.09567531      15.09596678      15.09655634      15.09750375      15.09882155      15.10040864      15.10222050      15.10428826      15.10704984      15.11077858      15.11539996      15.12065447      15.12639727      15.13267109      15.13955627      15.14757590      15.15683778
        15.16744507      15.17984761      15.19548986      15.21443834      15.23550774      15.25729680      15.27897311      15.30085681      15.32206370      15.33995021      15.35165837      15.35326187      15.34438587      15.32489871      15.30210247      15.28299031      15.26834320      15.25671461      15.24887360      15.24403300
        15.24024230      15.23792530      15.23655583      15.23516443      15.23382009      15.23166112      15.22881438      15.22438999      15.21871752      15.21292032      15.20917730      15.20752408      15.20658956      15.20520582      15.20325969      15.20074432      15.19742126      15.19381557      15.19083939      15.18917599
        15.77594927      15.77507279      15.77345950      15.77079576      15.76588506      15.75839817      15.74764639      15.73359482      15.71596163      15.69283758      15.66540491      15.63911829      15.61232453      15.58299581      15.55303958      15.52323026      15.49443745      15.46556006      15.43400643      15.39768064
        15.35811631      15.31337710      15.26665354      15.22449453      15.19106085      15.16725477      15.15212823      15.14263771      15.13678402      15.13415043      15.13331135      15.13293159      15.13229200      15.13122188      15.12940149      15.12736066      15.12550955      15.12309986      15.12010544      15.11709247
        15.11452666      15.11211258      15.10964322      15.10795234      15.10704829      15.10685904      15.10743651      15.10833784      15.10959780      15.11130953      15.11327612      15.11610111      15.12014043      15.12499344      15.13032149      15.13587872      15.14182790      15.14854067      15.15659478      15.16604517
        15.17685062      15.18947857      15.20566079      15.22562543      15.24863220      15.27363334      15.29901518      15.32529239      15.35139663      15.37552535      15.39485817      15.40166918      15.39537717      15.37704969      15.35177392      15.32741602      15.30860347      15.29362138      15.28218252      15.27495579
        15.26974188      15.26537050      15.26247217      15.26021715      15.25816868      15.25613628      15.25373834      15.24977337      15.24483699      15.23873301      15.23381082      15.23096251      15.22950312      15.22808159      15.22601163      15.22320388      15.21988412      15.21608467      15.21242508      15.21060768
        15.79907557      15.79904760      15.79803656      15.79598010      15.79200587      15.78580544      15.77666594      15.76454039      15.75047116      15.73261952      15.70847933      15.68244974      15.65708930      15.62812234      15.59657285      15.56360876      15.53120419      15.49975959      15.46836412      15.43387850
        15.39632120      15.35382727      15.30765693      15.26374458      15.22585073      15.19681292      15.17738963      15.16450375      15.15652346      15.15247479      15.15107790      15.15080616      15.15054903      15.15012309      15.14900485      15.14705117      15.14478433      15.14210674      15.13894960      15.13522057
        15.13183213      15.12847179      15.12467071      15.12128262      15.11888308      15.11781545      15.11776331      15.11817418      15.11906307      15.12061593      15.12274164      15.12577619      15.12994639      15.13478045      15.13990762      15.14515299      15.15089690      15.15747452      15.16541425      15.17497379
        15.18585026      15.19867235      15.21501862      15.23557326      15.26028490      15.28840401      15.31790811      15.34852492      15.37939536      15.41008403      15.43679976      15.45057983      15.44740875      15.43103226      15.40457164      15.37571374      15.35167400      15.33302917      15.31809305      15.30750370
        15.30025312      15.29392282      15.28914063      15.28559271      15.28217091      15.27932344      15.27681497      15.27340588      15.26893311      15.26310671      15.25728918      15.25331124      15.25096622      15.24912861      15.24716309      15.24452232      15.24135903      15.23792029      15.23456551      15.23263931
        15.81845037      15.81890896      15.81885118      15.81747565      15.81443689      15.80947186      15.80223672      15.79218980      15.78052266      15.76743451      15.74933531      15.72641774      15.70251705      15.67595204      15.64434792      15.60886862      15.57249289      15.53742015      15.50320892      15.46842464
        15.43100438      15.39003181      15.34478119      15.30035204      15.26013710      15.22688260      15.20314840      15.18672488      15.17604630      15.17016310      15.16787048      15.16748351      15.16764573      15.16777344      15.16725929      15.16548344      15.16313362      15.16032019      15.15708649      15.15335619
        15.14938459      15.14537458      15.14067938      15.13573257      15.13163948      15.12929501      15.12834634      15.12827132      15.12891706      15.13030668      15.13262159      15.13581679      15.13991548      15.14468216      15.14955609      15.15445553      15.15981240      15.16617258      15.17388910      15.18342611
        15.19451752      15.20764306      15.22425964      15.24540450      15.27143429      15.30203450      15.33534112      15.37034054      15.40633219      15.44293113      15.47689955      15.49814227      15.49967841      15.48563934      15.45984624      15.42832633      15.39829018      15.37428429      15.35520444      15.34129660
        15.33142029      15.32346500      15.31686376      15.31175684      15.30700766      15.30255091      15.29900272      15.29589079      15.29134718      15.28568064      15.27953171      15.27466172      15.27130125      15.26868998      15.26682772      15.26479697      15.26217510      15.25929323      15.25674125      15.25500674
        15.83473230      15.83549911      15.83609711      15.83555246      15.83327779      15.82930294      15.82366077      15.81586057      15.80648404      15.79686534      15.78435685      15.76711264      15.74615542      15.72270049      15.69375760      15.65794761      15.61759018      15.57894896      15.54117998      15.50414935
        15.46525423      15.42368524      15.37927953      15.33427461      15.29273128      15.25688902      15.22921325      15.20927848      15.19584768      15.18776574      15.18392752      15.18284439      15.18310599      15.18363891      15.18357206      15.18221780      15.18000651      15.17740355      15.17434160      15.17098428
        15.16688886      15.16231590      15.15715502      15.15116101      15.14557045      15.14175564      15.13974795      15.13904835      15.13941357      15.14061988      15.14283288      15.14598347      15.15000220      15.15456502      15.15914857      15.16367890      15.16866527      15.17471863      15.18228121      15.19189638
        15.20323797      15.21680070      15.23392580      15.25555093      15.28252746      15.31499557      15.35118755      15.39020623      15.43124737      15.47350000      15.51344312      15.54238331      15.55165903      15.54139771      15.51698895      15.48324591      15.44696800      15.41668131      15.39276403      15.37535869
        15.36259519      15.35305367      15.34502373      15.33847763      15.33255519      15.32648897      15.32107602      15.31681788      15.31196963      15.30607352      15.29978294      15.29447028      15.29049277      15.28733944      15.28511274      15.28365640      15.28212615      15.28002018      15.27797501      15.27672298
        15.84822087      15.84906305      15.84985358      15.84984495      15.84837435      15.84540895      15.84090544      15.83500998      15.82771480      15.82027405      15.81136249      15.79917482      15.78301801      15.76339039      15.73889176      15.70658641      15.66510951      15.62190011      15.58126555      15.54173325
        15.50131237      15.45740901      15.41239063      15.36733029      15.32467096      15.28701892      15.25590528      15.23231827      15.21612623      15.20590147      15.20002881      15.19768086      15.19746611      15.19792625      15.19818927      15.19744622      15.19563504      15.19337678      15.19078297      15.18767646
        15.18375772      15.17889745      15.17363288      15.16732562      15.16083361      15.15554974      15.15233542      15.15086395      15.15070015      15.15149481      15.15335085      15.15623613      15.16003091      15.16425424      15.16848641      15.17278082      15.17767087      15.18357800      15.19123141      15.20086808
        15.21228876      15.22605000      15.24366041      15.26622607      15.29387848      15.32718221      15.36576060      15.40846362      15.45402328      15.50119361      15.54701184      15.58396747      15.60140393      15.59721322      15.57525471      15.54047082      15.49916937      15.46120598      15.43177634      15.40973296
        15.39387394      15.38243044      15.37330035      15.36548567      15.35829457      15.35086028      15.34350302      15.33683313      15.33099269      15.32489736      15.31819076      15.31246481      15.30838347      15.30524354      15.30272702      15.30151655      15.30077083      15.29962944      15.29819190      15.29734936
        15.85944028      15.86010379      15.86078275      15.86085751      15.86001880      15.85796694      15.85444460      15.84980975      15.84416101      15.83821923      15.83160325      15.82289482      15.81112995      15.79559240      15.77615119      15.74954205      15.71196630      15.66647659      15.62250741      15.58052009
        15.53842466      15.49311065      15.44613856      15.40017334      15.35676664      15.31806063      15.28413513      15.25645197      15.23683165      15.22458798      15.21689851      15.21291564      15.21165010      15.21151595      15.21167121      15.21133004      15.21019175      15.20847132      15.20623991      15.20318493