# File generated by Flopy version 3.6.0 on 06/12/2024 at 16:02:50.
BEGIN options
  PRINT_OPTION  summary
  COMPLEXITY  complex
END options

BEGIN linear
  LINEAR_ACCELERATION  bicgstab
END linear

