# File generated by Flopy version 3.6.0 on 06/24/2024 at 10:44:02.
BEGIN options
  LENGTH_UNITS  meters
  XORIGIN       0.00000000
  YORIGIN       0.00000000
  ANGROT       0.00000000
END options

BEGIN dimensions
  NLAY  1
  NCPL  7355
  NVERT  8299
END dimensions

BEGIN griddata
  top
    INTERNAL  FACTOR  1.0
        50.00000000      50.00000000      50.00000000      50.00000000      50.00000000      50.00000000      50.00000000      50.00000000      50.00000000      50.00000000      50.00000000      50.00000000      50.00000000      50.00000000      50.00000000      50.00000000      50.00000000      50.00000000      50.00000000      50.00000000
        50.00000000      50.00000000      50.00000000      50.00000000      50.00000000      50.00000000      50.00000000      50.00000000      50.00000000      50.00000000      50.00000000      50.00000000      50.00000000      50.00000000      50.00000000      50.00000000      50.00000000      50.00000000      50.00000000      50.00000000
        50.00000000      50.00000000      50.00000000      50.00000000      50.00000000      50.00000000      50.00000000      50.00000000      50.00000000      50.00000000      50.00000000      50.00000000      50.00000000      50.00000000      50.00000000      50.00000000      50.00000000      50.00000000      50.00000000      50.00000000
        50.00000000      50.00000000      50.00000000      50.00000000      50.00000000      50.00000000      50.00000000      50.00000000      50.00000000      50.00000000      50.00000000      50.00000000      50.00000000      50.00000000      50.00000000      50.00000000      50.00000000      50.00000000      50.00000000      50.00000000
        50.00000000      50.00000000      50.00000000      50.00000000      50.00000000      50.00000000      50.00000000      50.00000000      50.00000000      50.00000000      50.00000000      50.00000000      50.00000000      50.00000000      50.00000000      50.00000000      50.00000000      50.00000000      50.00000000      50.00000000
        50.00000000      50.00000000      50.00000000      50.00000000      50.00000000      50.00000000      50.00000000      50.00000000      50.00000000      50.00000000      50.00000000      50.00000000      50.00000000      50.00000000      50.00000000      50.00000000      50.00000000      50.00000000      50.00000000      50.00000000
        50.00000000      50.00000000      50.00000000      50.00000000      50.00000000      50.00000000      50.00000000      50.00000000      50.00000000      50.00000000      50.00000000      50.00000000      50.00000000      50.00000000      50.00000000      50.00000000      50.00000000      50.00000000      50.00000000      50.00000000
        50.00000000      50.00000000      50.00000000      50.00000000      50.00000000      50.00000000      50.00000000      50.00000000      50.00000000      50.00000000      50.00000000      50.00000000      50.00000000      50.00000000      50.00000000      50.00000000      50.00000000      50.00000000      50.00000000      50.00000000
        50.00000000      50.00000000      50.00000000      50.00000000      50.00000000      50.00000000      50.00000000      50.00000000      50.00000000      50.00000000      50.00000000      50.00000000      50.00000000      50.00000000      50.00000000      50.00000000      50.00000000      50.00000000      50.00000000      50.00000000
        50.00000000      50.00000000      50.00000000      50.00000000      50.00000000      50.00000000      50.00000000      50.00000000      50.00000000      50.00000000      50.00000000      50.00000000      50.00000000      50.00000000      50.00000000      50.00000000      50.00000000      50.00000000      50.00000000      50.00000000
        50.00000000      50.00000000      50.00000000      50.00000000      50.00000000      50.00000000      50.00000000      50.00000000      50.00000000      50.00000000      50.00000000      50.00000000      50.00000000      50.00000000      50.00000000      50.00000000      50.00000000      50.00000000      50.00000000      50.00000000
        50.00000000      50.00000000      50.00000000      50.00000000      50.00000000      50.00000000      50.00000000      50.00000000      50.00000000      50.00000000      50.00000000      50.00000000      50.00000000      50.00000000      50.00000000      50.00000000      50.00000000      50.00000000      50.00000000      50.00000000
        50.00000000      50.00000000      50.00000000      50.00000000      50.00000000      50.00000000      50.00000000      50.00000000      50.00000000      50.00000000      50.00000000      50.00000000      50.00000000      50.00000000      50.00000000      50.00000000      50.00000000      50.00000000      50.00000000      50.00000000
        50.00000000      50.00000000      50.00000000      50.00000000      50.00000000      50.00000000      50.00000000      50.00000000      50.00000000      50.00000000      50.00000000      50.00000000      50.00000000      50.00000000      50.00000000      50.00000000      50.00000000      50.00000000      50.00000000      50.00000000
        50.00000000      50.00000000      50.00000000      50.00000000      50.00000000      50.00000000      50.00000000      50.00000000      50.00000000      50.00000000      50.00000000      50.00000000      50.00000000      50.00000000      50.00000000      50.00000000      50.00000000      50.00000000      50.00000000      50.00000000
        50.00000000      50.00000000      50.00000000      50.00000000      50.00000000      50.00000000      50.00000000      50.00000000      50.00000000      50.00000000      50.00000000      50.00000000      50.00000000      50.00000000      50.00000000      50.00000000      50.00000000      50.00000000      50.00000000      50.00000000
        50.00000000      50.00000000      50.00000000      50.00000000      50.00000000      50.00000000      50.00000000      50.00000000      50.00000000      50.00000000      50.00000000      50.00000000      50.00000000      50.00000000      50.00000000      50.00000000      50.00000000      50.00000000      50.00000000      50.00000000
        50.00000000      50.00000000      50.00000000      50.00000000      50.00000000      50.00000000      50.00000000      50.00000000      50.00000000      50.00000000      50.00000000      50.00000000      50.00000000      50.00000000      50.00000000      50.00000000      50.00000000      50.00000000      50.00000000      50.00000000
        50.00000000      50.00000000      50.00000000      50.00000000      50.00000000      50.00000000      50.00000000      50.00000000      50.00000000      50.00000000      50.00000000      50.00000000      50.00000000      50.00000000      50.00000000      50.00000000      50.00000000      50.00000000      50.00000000      50.00000000
        50.00000000      50.00000000      50.00000000      50.00000000      50.00000000      50.00000000      50.00000000      50.00000000      50.00000000      50.00000000      50.00000000      50.00000000      50.00000000      50.00000000      50.00000000      50.00000000      50.00000000      50.00000000      50.00000000      50.00000000
        50.00000000      50.00000000      50.00000000      50.00000000      50.00000000      50.00000000      50.00000000      50.00000000      50.00000000      50.00000000      50.00000000      50.00000000      50.00000000      50.00000000      50.00000000      50.00000000      50.00000000      50.00000000      50.00000000      50.00000000
        50.00000000      50.00000000      50.00000000      50.00000000      50.00000000      50.00000000      50.00000000      50.00000000      50.00000000      50.00000000      50.00000000      50.00000000      50.00000000      50.00000000      50.00000000      50.00000000      50.00000000      50.00000000      50.00000000      50.00000000
        50.00000000      50.00000000      50.00000000      50.00000000      50.00000000      50.00000000      50.00000000      50.00000000      50.00000000      50.00000000      50.00000000      50.00000000      50.00000000      50.00000000      50.00000000      50.00000000      50.00000000      50.00000000      50.00000000      50.00000000
        50.00000000      50.00000000      50.00000000      50.00000000      50.00000000      50.00000000      50.00000000      50.00000000      50.00000000      50.00000000      50.00000000      50.00000000      50.00000000      50.00000000      50.00000000      50.00000000      50.00000000      50.00000000      50.00000000      50.00000000
        50.00000000      50.00000000      50.00000000      50.00000000      50.00000000      50.00000000      50.00000000      50.00000000      50.00000000      50.00000000      50.00000000      50.00000000      50.00000000      50.00000000      50.00000000      50.00000000      50.00000000      50.00000000      50.00000000      50.00000000
        50.00000000      50.00000000      50.00000000      50.00000000      50.00000000      50.00000000      50.00000000      50.00000000      50.00000000      50.00000000      50.00000000      50.00000000      50.00000000      50.00000000      50.00000000      50.00000000      50.00000000      50.00000000      50.00000000      50.00000000
        50.00000000      50.00000000      50.00000000      50.00000000      50.00000000      50.00000000      50.00000000      50.00000000      50.00000000      50.00000000      50.00000000      50.00000000      50.00000000      50.00000000      50.00000000      50.00000000      50.00000000      50.00000000      50.00000000      50.00000000
        50.00000000      50.00000000      50.00000000      50.00000000      50.00000000      50.00000000      50.00000000      50.00000000      50.00000000      50.00000000      50.00000000      50.00000000      50.00000000      50.00000000      50.00000000      50.00000000      50.00000000      50.00000000      50.00000000      50.00000000
        50.00000000      50.00000000      50.00000000      50.00000000      50.00000000      50.00000000      50.00000000      50.00000000      50.00000000      50.00000000      50.00000000      50.00000000      50.00000000      50.00000000      50.00000000      50.00000000      50.00000000      50.00000000      50.00000000      50.00000000
        50.00000000      50.00000000      50.00000000      50.00000000      50.00000000      50.00000000      50.00000000      50.00000000      50.00000000      50.00000000      50.00000000      50.00000000      50.00000000      50.00000000      50.00000000      50.00000000      50.00000000      50.00000000      50.00000000      50.00000000
        50.00000000      50.00000000      50.00000000      50.00000000      50.00000000      50.00000000      50.00000000      50.00000000      50.00000000      50.00000000      50.00000000      50.00000000      50.00000000      50.00000000      50.00000000      50.00000000      50.00000000      50.00000000      50.00000000      50.00000000
        50.00000000      50.00000000      50.00000000      50.00000000      50.00000000      50.00000000      50.00000000      50.00000000      50.00000000      50.00000000      50.00000000      50.00000000      50.00000000      50.00000000      50.00000000      50.00000000      50.00000000      50.00000000      50.00000000      50.00000000
        50.00000000      50.00000000      50.00000000      50.00000000      50.00000000      50.00000000      50.00000000      50.00000000      50.00000000      50.00000000      50.00000000      50.00000000      50.00000000      50.00000000      50.00000000      50.00000000      50.00000000      50.00000000      50.00000000      50.00000000
        50.00000000      50.00000000      50.00000000      50.00000000      50.00000000      50.00000000      50.00000000      50.00000000      50.00000000      50.00000000      50.00000000      50.00000000      50.00000000      50.00000000      50.00000000      50.00000000      50.00000000      50.00000000      50.00000000      50.00000000
        50.00000000      50.00000000      50.00000000      50.00000000      50.00000000      50.00000000      50.00000000      50.00000000      50.00000000      50.00000000      50.00000000      50.00000000      50.00000000      50.00000000      50.00000000      50.00000000      50.00000000      50.00000000      50.00000000      50.00000000
        50.00000000      50.00000000      50.00000000      50.00000000      50.00000000      50.00000000      50.00000000      50.00000000      50.00000000      50.00000000      50.00000000      50.00000000      50.00000000      50.00000000      50.00000000      50.00000000      50.00000000      50.00000000      50.00000000      50.00000000
        50.00000000      50.00000000      50.00000000      50.00000000      50.00000000      50.00000000      50.00000000      50.00000000      50.00000000      50.00000000      50.00000000      50.00000000      50.00000000      50.00000000      50.00000000      50.00000000      50.00000000      50.00000000      50.00000000      50.00000000
        50.00000000      50.00000000      50.00000000      50.00000000      50.00000000      50.00000000      50.00000000      50.00000000      50.00000000      50.00000000      50.00000000      50.00000000      50.00000000      50.00000000      50.00000000      50.00000000      50.00000000      50.00000000      50.00000000      50.00000000
        50.00000000      50.00000000      50.00000000      50.00000000      50.00000000      50.00000000      50.00000000      50.00000000      50.00000000      50.00000000      50.00000000      50.00000000      50.00000000      50.00000000      50.00000000      50.00000000      50.00000000      50.00000000      50.00000000      50.00000000
        50.00000000      50.00000000      50.00000000      50.00000000      50.00000000      50.00000000      50.00000000      50.00000000      50.00000000      50.00000000      50.00000000      50.00000000      50.00000000      50.00000000      50.00000000      50.00000000      50.00000000      50.00000000      50.00000000      50.00000000
        50.00000000      50.00000000      50.00000000      50.00000000      50.00000000      50.00000000      50.00000000      50.00000000      50.00000000      50.00000000      50.00000000      50.00000000      50.00000000      50.00000000      50.00000000      50.00000000      50.00000000      50.00000000      50.00000000      50.00000000
        50.00000000      50.00000000      50.00000000      50.00000000      50.00000000      50.00000000      50.00000000      50.00000000      50.00000000      50.00000000      50.00000000      50.00000000      50.00000000      50.00000000      50.00000000      50.00000000      50.00000000      50.00000000      50.00000000      50.00000000
        50.00000000      50.00000000      50.00000000      50.00000000      50.00000000      50.00000000      50.00000000      50.00000000      50.00000000      50.00000000      50.00000000      50.00000000      50.00000000      50.00000000      50.00000000      50.00000000      50.00000000      50.00000000      50.00000000      50.00000000
        50.00000000      50.00000000      50.00000000      50.00000000      50.00000000      50.00000000      50.00000000      50.00000000      50.00000000      50.00000000      50.00000000      50.00000000      50.00000000      50.00000000      50.00000000      50.00000000      50.00000000      50.00000000      50.00000000      50.00000000
        50.00000000      50.00000000      50.00000000      50.00000000      50.00000000      50.00000000      50.00000000      50.00000000      50.00000000      50.00000000      50.00000000      50.00000000      50.00000000      50.00000000      50.00000000      50.00000000      50.00000000      50.00000000      50.00000000      50.00000000
        50.00000000      50.00000000      50.00000000      50.00000000      50.00000000      50.00000000      50.00000000      50.00000000      50.00000000      50.00000000      50.00000000      50.00000000      50.00000000      50.00000000      50.00000000      50.00000000      50.00000000      50.00000000      50.00000000      50.00000000
        50.00000000      50.00000000      50.00000000      50.00000000      50.00000000      50.00000000      50.00000000      50.00000000      50.00000000      50.00000000      50.00000000      50.00000000      50.00000000      50.00000000      50.00000000      50.00000000      50.00000000      50.00000000      50.00000000      50.00000000
        50.00000000      50.00000000      50.00000000      50.00000000      50.00000000      50.00000000      50.00000000      50.00000000      50.00000000      50.00000000      50.00000000      50.00000000      50.00000000      50.00000000      50.00000000      50.00000000      50.00000000      50.00000000      50.00000000      50.00000000
        50.00000000      50.00000000      50.00000000      50.00000000      50.00000000      50.00000000      50.00000000      50.00000000      50.00000000      50.00000000      50.00000000      50.00000000      50.00000000      50.00000000      50.00000000      50.00000000      50.00000000      50.00000000      50.00000000      50.00000000
        50.00000000      50.00000000      50.00000000      50.00000000      50.00000000      50.00000000      50.00000000      50.00000000      50.00000000      50.00000000      50.00000000      50.00000000      50.00000000      50.00000000      50.00000000      50.00000000      50.00000000      50.00000000      50.00000000      50.00000000
        50.00000000      50.00000000      50.00000000      50.00000000      50.00000000      50.00000000      50.00000000      50.00000000      50.00000000      50.00000000      50.00000000      50.00000000      50.00000000      50.00000000      50.00000000      50.00000000      50.00000000      50.00000000      50.00000000      50.00000000
        50.00000000      50.00000000      50.00000000      50.00000000      50.00000000      50.00000000      50.00000000      50.00000000      50.00000000      50.00000000      50.00000000      50.00000000      50.00000000      50.00000000      50.00000000      50.00000000      50.00000000      50.00000000      50.00000000      50.00000000
        50.00000000      50.00000000      50.00000000      50.00000000      50.00000000      50.00000000      50.00000000      50.00000000      50.00000000      50.00000000      50.00000000      50.00000000      50.00000000      50.00000000      50.00000000      50.00000000      50.00000000      50.00000000      50.00000000      50.00000000
        50.00000000      50.00000000      50.00000000      50.00000000      50.00000000      50.00000000      50.00000000      50.00000000      50.00000000      50.00000000      50.00000000      50.00000000      50.00000000      50.00000000      50.00000000      50.00000000      50.00000000      50.00000000      50.00000000      50.00000000
        50.00000000      50.00000000      50.00000000      50.00000000      50.00000000      50.00000000      50.00000000      50.00000000      50.00000000      50.00000000      50.00000000      50.00000000      50.00000000      50.00000000      50.00000000      50.00000000      50.00000000      50.00000000      50.00000000      50.00000000
        50.00000000      50.00000000      50.00000000      50.00000000      50.00000000      50.00000000      50.00000000      50.00000000      50.00000000      50.00000000      50.00000000      50.00000000      50.00000000      50.00000000      50.00000000      50.00000000      50.00000000      50.00000000      50.00000000      50.00000000
        50.00000000      50.00000000      50.00000000      50.00000000      50.00000000      50.00000000      50.00000000      50.00000000      50.00000000      50.00000000      50.00000000      50.00000000      50.00000000      50.00000000      50.00000000      50.00000000      50.00000000      50.00000000      50.00000000      50.00000000
        50.00000000      50.00000000      50.00000000      50.00000000      50.00000000      50.00000000      50.00000000      50.00000000      50.00000000      50.00000000      50.00000000      50.00000000      50.00000000      50.00000000      50.00000000      50.00000000      50.00000000      50.00000000      50.00000000      50.00000000
        50.00000000      50.00000000      50.00000000      50.00000000      50.00000000      50.00000000      50.00000000      50.00000000      50.00000000      50.00000000      50.00000000      50.00000000      50.00000000      50.00000000      50.00000000      50.00000000      50.00000000      50.00000000      50.00000000      50.00000000
        50.00000000      50.00000000      50.00000000      50.00000000      50.00000000      50.00000000      50.00000000      50.00000000      50.00000000      50.00000000      50.00000000      50.00000000      50.00000000      50.00000000      50.00000000      50.00000000      50.00000000      50.00000000      50.00000000      50.00000000
        50.00000000      50.00000000      50.00000000      50.00000000      50.00000000      50.00000000      50.00000000      50.00000000      50.00000000      50.00000000      50.00000000      50.00000000      50.00000000      50.00000000      50.00000000      50.00000000      50.00000000      50.00000000      50.00000000      50.00000000
        50.00000000      50.00000000      50.00000000      50.00000000      50.00000000      50.00000000      50.00000000      50.00000000      50.00000000      50.00000000      50.00000000      50.00000000      50.00000000      50.00000000      50.00000000      50.00000000      50.00000000      50.00000000      50.00000000      50.00000000
        50.00000000      50.00000000      50.00000000      50.00000000      50.00000000      50.00000000      50.00000000      50.00000000      50.00000000      50.00000000      50.00000000      50.00000000      50.00000000      50.00000000      50.00000000      50.00000000      50.00000000      50.00000000      50.00000000      50.00000000
        50.00000000      50.00000000      50.00000000      50.00000000      50.00000000      50.00000000      50.00000000      50.00000000      50.00000000      50.00000000      50.00000000      50.00000000      50.00000000      50.00000000      50.00000000      50.00000000      50.00000000      50.00000000      50.00000000      50.00000000
        50.00000000      50.00000000      50.00000000      50.00000000      50.00000000      50.00000000      50.00000000      50.00000000      50.00000000      50.00000000      50.00000000      50.00000000      50.00000000      50.00000000      50.00000000      50.00000000      50.00000000      50.00000000      50.00000000      50.00000000
        50.00000000      50.00000000      50.00000000      50.00000000      50.00000000      50.00000000      50.00000000      50.00000000      50.00000000      50.00000000      50.00000000      50.00000000      50.00000000      50.00000000      50.00000000      50.00000000      50.00000000      50.00000000      50.00000000      50.00000000
        50.00000000      50.00000000      50.00000000      50.00000000      50.00000000      50.00000000      50.00000000      50.00000000      50.00000000      50.00000000      50.00000000      50.00000000      50.00000000      50.00000000      50.00000000      50.00000000      50.00000000      50.00000000      50.00000000      50.00000000
        50.00000000      50.00000000      50.00000000      50.00000000      50.00000000      50.00000000      50.00000000      50.00000000      50.00000000      50.00000000      50.00000000      50.00000000      50.00000000      50.00000000      50.00000000      50.00000000      50.00000000      50.00000000      50.00000000      50.00000000
        50.00000000      50.00000000      50.00000000      50.00000000      50.00000000      50.00000000      50.00000000      50.00000000      50.00000000      50.00000000      50.00000000      50.00000000      50.00000000      50.00000000      50.00000000      50.00000000      50.00000000      50.00000000      50.00000000      50.00000000
        50.00000000      50.00000000      50.00000000      50.00000000      50.00000000      50.00000000      50.00000000      50.00000000      50.00000000      50.00000000      50.00000000      50.00000000      50.00000000      50.00000000      50.00000000      50.00000000      50.00000000      50.00000000      50.00000000      50.00000000
        50.00000000      50.00000000      50.00000000      50.00000000      50.00000000      50.00000000      50.00000000      50.00000000      50.00000000      50.00000000      50.00000000      50.00000000      50.00000000      50.00000000      50.00000000      50.00000000      50.00000000      50.00000000      50.00000000      50.00000000
        50.00000000      50.00000000      50.00000000      50.00000000      50.00000000      50.00000000      50.00000000      50.00000000      50.00000000      50.00000000      50.00000000      50.00000000      50.00000000      50.00000000      50.00000000      50.00000000      50.00000000      50.00000000      50.00000000      50.00000000
        50.00000000      50.00000000      50.00000000      50.00000000      50.00000000      50.00000000      50.00000000      50.00000000      50.00000000      50.00000000      50.00000000      50.00000000      50.00000000      50.00000000      50.00000000      50.00000000      50.00000000      50.00000000      50.00000000      50.00000000
        50.00000000      50.00000000      50.00000000      50.00000000      50.00000000      50.00000000      50.00000000      50.00000000      50.00000000      50.00000000      50.00000000      50.00000000      50.00000000      50.00000000      50.00000000      50.00000000      50.00000000      50.00000000      50.00000000      50.00000000
        50.00000000      50.00000000      50.00000000      50.00000000      50.00000000      50.00000000      50.00000000      50.00000000      50.00000000      50.00000000      50.00000000      50.00000000      50.00000000      50.00000000      50.00000000      50.00000000      50.00000000      50.00000000      50.00000000      50.00000000
        50.00000000      50.00000000      50.00000000      50.00000000      50.00000000      50.00000000      50.00000000      50.00000000      50.00000000      50.00000000      50.00000000      50.00000000      50.00000000      50.00000000      50.00000000      50.00000000      50.00000000      50.00000000      50.00000000      50.00000000
        50.00000000      50.00000000      50.00000000      50.00000000      50.00000000      50.00000000      50.00000000      50.00000000      50.00000000      50.00000000      50.00000000      50.00000000      50.00000000      50.00000000      50.00000000      50.00000000      50.00000000      50.00000000      50.00000000      50.00000000
        50.00000000      50.00000000      50.00000000      50.00000000      50.00000000      50.00000000      50.00000000      50.00000000      50.00000000      50.00000000      50.00000000      50.00000000      50.00000000      50.00000000      50.00000000      50.00000000      50.00000000      50.00000000      50.00000000      50.00000000
        50.00000000      50.00000000      50.00000000      50.00000000      50.00000000      50.00000000      50.00000000      50.00000000      50.00000000      50.00000000      50.00000000      50.00000000      50.00000000      50.00000000      50.00000000      50.00000000      50.00000000      50.00000000      50.00000000      50.00000000
        50.00000000      50.00000000      50.00000000      50.00000000      50.00000000      50.00000000      50.00000000      50.00000000      50.00000000      50.00000000      50.00000000      50.00000000      50.00000000      50.00000000      50.00000000      50.00000000      50.00000000      50.00000000      50.00000000      50.00000000
        50.00000000      50.00000000      50.00000000      50.00000000      50.00000000      50.00000000      50.00000000      50.00000000      50.00000000      50.00000000      50.00000000      50.00000000      50.00000000      50.00000000      50.00000000      50.00000000      50.00000000      50.00000000      50.00000000      50.00000000
        50.00000000      50.00000000      50.00000000      50.00000000      50.00000000      50.00000000      50.00000000      50.00000000      50.00000000      50.00000000      50.00000000      50.00000000      50.00000000      50.00000000      50.00000000      50.00000000      50.00000000      50.00000000      50.00000000      50.00000000
        50.00000000      50.00000000      50.00000000      50.00000000      50.00000000      50.00000000      50.00000000      50.00000000      50.00000000      50.00000000      50.00000000      50.00000000      50.00000000      50.00000000      50.00000000      50.00000000      50.00000000      50.00000000      50.00000000      50.00000000
        50.00000000      50.00000000      50.00000000      50.00000000      50.00000000      50.00000000      50.00000000      50.00000000      50.00000000      50.00000000      50.00000000      50.00000000      50.00000000      50.00000000      50.00000000      50.00000000      50.00000000      50.00000000      50.00000000      50.00000000
        50.00000000      50.00000000      50.00000000      50.00000000      50.00000000      50.00000000      50.00000000      50.00000000      50.00000000      50.00000000      50.00000000      50.00000000      50.00000000      50.00000000      50.00000000      50.00000000      50.00000000      50.00000000      50.00000000      50.00000000
        50.00000000      50.00000000      50.00000000      50.00000000      50.00000000      50.00000000      50.00000000      50.00000000      50.00000000      50.00000000      50.00000000      50.00000000      50.00000000      50.00000000      50.00000000      50.00000000      50.00000000      50.00000000      50.00000000      50.00000000