# File generated by Flopy version 3.7.0 on 08/02/2024 at 14:40:06.
BEGIN options
  PRINT_OPTION  summary
  COMPLEXITY  complex
END options

BEGIN linear
  LINEAR_ACCELERATION  bicgstab
END linear

