# File generated by Flopy version 3.7.0 on 06/19/2024 at 15:23:10.
BEGIN options
END options

BEGIN griddata
  icelltype
    CONSTANT  0
  k
    INTERNAL  FACTOR  1.0
    1.98232547E-04  1.53969177E-04  1.29157884E-04  1.07071096E-04  1.04468328E-04  9.51961536E-05  8.48944797E-05  7.53850616E-05  7.40033402E-05  7.39681703E-05  6.21632639E-05  5.57568377E-05  5.27162728E-05  5.26886065E-05  4.69389509E-05  4.47389618E-05  4.29850255E-05  3.89000976E-05  4.12966720E-05  4.61482096E-05
    4.92130899E-05  5.62380440E-05  6.29556212E-05  7.48852412E-05  8.38212846E-05  8.87128059E-05  9.49269835E-05  9.86144664E-05  1.00289880E-04  1.07930920E-04  1.26525252E-04  1.40629374E-04  1.61995049E-04  2.02773224E-04  2.31641576E-04  2.72678572E-04  3.00657947E-04  3.05070387E-04  3.58684616E-04  4.18839863E-04
    4.13091222E-04  4.35494561E-04  4.45706093E-04  4.81642115E-04  4.68614442E-04  3.81657436E-04  3.58407873E-04  3.41472816E-04  3.21311784E-04  2.84077346E-04  2.81681317E-04  2.50305192E-04  2.87543601E-04  2.78590525E-04  2.67327119E-04  2.59254454E-04  2.52802084E-04  2.61645449E-04  2.50667878E-04  2.50327380E-04
    2.70372715E-04  2.91763562E-04  3.25563805E-04  3.41668059E-04  3.83605407E-04  4.46659682E-04  4.92591867E-04  5.47787707E-04  5.58388742E-04  5.02318495E-04  4.39682383E-04  3.75724050E-04  3.24098775E-04  2.34971723E-04  2.06623127E-04  1.67526871E-04  1.50532186E-04  1.40869047E-04  1.33072862E-04  1.31401849E-04
    1.25713580E-04  1.22287891E-04  1.32496721E-04  1.48228778E-04  1.55692831E-04  1.68106739E-04  1.90888722E-04  2.14925024E-04  2.40864657E-04  2.70642383E-04  3.22792535E-04  3.94883955E-04  5.37062471E-04  6.96345142E-04  8.05870620E-04  8.92256732E-04       0.00103747       0.00118822       0.00143610       0.00149016
    1.78973070E-04  1.54439190E-04  1.37206528E-04  1.15992644E-04  1.11495902E-04  1.02842465E-04  9.00940629E-05  8.32477688E-05  7.62794829E-05  7.00862617E-05  6.01045867E-05  5.36903466E-05  5.13289267E-05  5.18905933E-05  4.78982184E-05  4.58632353E-05  4.35898127E-05  3.67291923E-05  3.94056732E-05  4.27453960E-05
    4.45031107E-05  5.07555654E-05  5.53277885E-05  6.38702485E-05  7.08648524E-05  7.47642040E-05  7.75368056E-05  8.20245872E-05  9.00063369E-05  1.03123119E-04  1.22515380E-04  1.41750950E-04  1.57266128E-04  2.00582223E-04  2.29141259E-04  2.47501801E-04  2.75517137E-04  3.00155436E-04  3.56735881E-04  4.00827560E-04
    3.62375913E-04  3.79512190E-04  3.74664245E-04  4.05042141E-04  4.15896828E-04  3.67971583E-04  3.60111990E-04  3.54083916E-04  3.39086737E-04  3.13373671E-04  3.09935846E-04  2.85111962E-04  3.12129063E-04  2.77366479E-04  2.71569660E-04  2.67123624E-04  2.46757307E-04  2.51984454E-04  2.42616219E-04  2.38358180E-04
    2.56831116E-04  2.76891212E-04  3.13212868E-04  3.24560454E-04  3.44376833E-04  4.08215747E-04  4.56075266E-04  4.83864526E-04  4.83502377E-04  4.18263754E-04  3.65694857E-04  3.09094359E-04  2.69724350E-04  2.05358052E-04  2.08327040E-04  1.88366163E-04  1.79315785E-04  1.70358685E-04  1.58889898E-04  1.46655709E-04
    1.40515741E-04  1.38379037E-04  1.46592352E-04  1.65979232E-04  1.74796180E-04  1.89958218E-04  2.16694063E-04  2.30419093E-04  2.40589363E-04  2.72104592E-04  3.34878569E-04  4.05171736E-04  5.28763891E-04  6.46139758E-04  7.11522891E-04  7.86761585E-04  9.23073331E-04       0.00107685       0.00125758       0.00129159
    1.85064832E-04  1.71985226E-04  1.56727683E-04  1.27300273E-04  1.22663039E-04  1.22694833E-04  1.13171843E-04  1.00868381E-04  8.37633223E-05  7.39555057E-05  6.32288385E-05  5.81267436E-05  5.43433166E-05  5.26496566E-05  4.92095048E-05  4.81048085E-05  4.42076057E-05  3.60266113E-05  3.78940470E-05  4.18035994E-05
    4.33988201E-05  4.98045351E-05  5.24027978E-05  5.87768465E-05  6.55345726E-05  6.97314921E-05  6.96638340E-05  7.76633389E-05  9.29742424E-05  1.07674243E-04  1.21763611E-04  1.32134449E-04  1.44570326E-04  1.80873782E-04  1.99510053E-04  2.22200085E-04  2.43736031E-04  2.48181435E-04  2.88486377E-04  3.21036201E-04
    3.01371811E-04  3.27441224E-04  3.61957525E-04  4.04557606E-04  4.19333524E-04  4.04358243E-04  4.25403979E-04  4.23483735E-04  4.18282166E-04  3.88113334E-04  3.72525530E-04  3.40580874E-04  3.54312951E-04  3.11958669E-04  2.89612153E-04  2.69614677E-04  2.44430763E-04  2.38505324E-04  2.29663470E-04  2.43488734E-04
    2.67110384E-04  2.77613632E-04  3.04601172E-04  3.19383091E-04  3.56315908E-04  4.22620534E-04  4.37807337E-04  4.30139994E-04  4.14510765E-04  3.60113410E-04  3.25619978E-04  2.74905059E-04  2.43211654E-04  2.10936523E-04  2.19386581E-04  2.07024286E-04  2.06862884E-04  1.93063553E-04  1.79588451E-04  1.74000572E-04
    1.73871571E-04  1.71985882E-04  1.76012484E-04  1.94599979E-04  1.95793433E-04  1.97839029E-04  2.04345826E-04  2.21189931E-04  2.44570170E-04  2.62809324E-04  3.31056031E-04  3.71275476E-04  4.70564794E-04  5.55400532E-04  6.08702268E-04  6.76498923E-04  8.35999872E-04  9.66698676E-04       0.00106708       0.00110185
    2.00094143E-04  1.90546437E-04  1.81530433E-04  1.50737115E-04  1.45775527E-04  1.50612932E-04  1.38331563E-04  1.22229132E-04  9.78727241E-05  8.42929238E-05  7.19314830E-05  6.35115460E-05  5.45872070E-05  5.17848016E-05  4.68485847E-05  4.41942641E-05  4.04939986E-05  3.41707790E-05  3.70276129E-05  4.06264079E-05
    4.28064827E-05  4.75417458E-05  5.02809352E-05  5.37910041E-05  5.88685928E-05  6.16444285E-05  6.24372660E-05  7.23004514E-05  8.80121001E-05  9.72905768E-05  1.07947742E-04  1.14515606E-04  1.19524036E-04  1.42699036E-04  1.54933014E-04  1.73454635E-04  1.99878820E-04  2.00673938E-04  2.28497173E-04  2.61856814E-04
    2.62745909E-04  2.99156813E-04  3.47695607E-04  4.23952367E-04  4.31588870E-04  4.05725743E-04  4.35108844E-04  4.54592539E-04  4.62354932E-04  4.51955221E-04  4.55000095E-04  4.04347631E-04  4.06999812E-04  3.36784369E-04  2.91650161E-04  2.49931624E-04  2.18598353E-04  2.19904637E-04  2.18621977E-04  2.37950460E-04
    2.73922147E-04  2.75527471E-04  2.97738803E-04  3.08721427E-04  3.34049144E-04  3.75936814E-04  3.99162794E-04  3.95996771E-04  3.83209357E-04  3.21682642E-04  3.03139799E-04  2.75448797E-04  2.61093390E-04  2.20353418E-04  2.28848232E-04  2.23619721E-04  2.18479950E-04  2.26493563E-04  2.19808350E-04  2.16667609E-04
    2.19099033E-04  2.08957854E-04  1.98665012E-04  2.06177062E-04  1.96677313E-04  1.91386382E-04  1.94857456E-04  2.01129940E-04  2.14005046E-04  2.46548897E-04  3.01011894E-04  3.36829669E-04  4.21712547E-04  4.85135644E-04  5.64501832E-04  6.53268934E-04  7.86185730E-04  8.79348347E-04  9.83919820E-04  9.32309455E-04
    2.32237449E-04  2.20378007E-04  2.01901291E-04  1.80411239E-04  1.87887995E-04  1.77779349E-04  1.58163147E-04  1.40943055E-04  1.16120933E-04  1.02037339E-04  8.79149613E-05  7.31850665E-05  5.94818472E-05  5.14155875E-05  4.58787900E-05  4.21285967E-05  3.85450462E-05  3.44517744E-05  3.70805174E-05  3.91996346E-05
    4.17518384E-05  4.59418339E-05  4.88069386E-05  5.19148592E-05  5.51183376E-05  5.69092673E-05  5.98624154E-05  7.47110048E-05  8.50111439E-05  8.45391708E-05  8.95810734E-05  9.30209302E-05  1.07733320E-04  1.25412284E-04  1.26884331E-04  1.36558313E-04  1.55870442E-04  1.63548849E-04  1.95136569E-04  2.16699470E-04
    2.33805641E-04  2.78327675E-04  3.35706801E-04  3.94622457E-04  4.11009015E-04  3.97216810E-04  4.42910343E-04  4.96664873E-04  5.03077296E-04  4.77904422E-04  4.94202058E-04  4.26651193E-04  4.20781068E-04  3.28350326E-04  2.74266438E-04  2.33726085E-04  2.08378344E-04  2.10513944E-04  2.24176935E-04  2.53247837E-04
    2.85516900E-04  2.84201610E-04  2.90577960E-04  2.87510060E-04  3.01722294E-04  3.34884985E-04  3.48967445E-04  3.51251561E-04  3.36921482E-04  3.02447011E-04  2.93161006E-04  2.84314726E-04  2.84662627E-04  2.41067157E-04  2.52638709E-04  2.57116373E-04  2.61364336E-04  2.65822298E-04  2.64294140E-04  2.64550486E-04
    2.58963369E-04  2.34379248E-04  2.15641555E-04  1.97620247E-04  1.71243179E-04  1.65031150E-04  1.69743997E-04  1.74876537E-04  1.89249028E-04  2.10056264E-04  2.66075846E-04  3.03679588E-04  3.74606076E-04  4.10740046E-04  5.13365015E-04  5.97007631E-04  6.89573740E-04  7.53850521E-04  8.12652349E-04  7.53876451E-04
    2.45596816E-04  2.42552422E-04  2.25139806E-04  2.08736508E-04  2.12081899E-04  2.06334336E-04  1.92051247E-04  1.72258931E-04  1.47356763E-04  1.34749787E-04  1.07265507E-04  8.10553824E-05  6.45959635E-05  5.35606986E-05  4.43897974E-05  4.21868822E-05  4.09364628E-05  3.83914973E-05  4.05652203E-05  4.33873642E-05
    4.49806868E-05  4.96963788E-05  5.42208664E-05  5.35372554E-05  5.39379118E-05  5.27389854E-05  5.92510759E-05  6.90710200E-05  7.51491863E-05  7.71400413E-05  8.22334981E-05  8.98222525E-05  9.99744969E-05  1.06789530E-04  1.03853116E-04  1.12266146E-04  1.29362490E-04  1.36783409E-04  1.57125651E-04  1.89320640E-04
    2.03670553E-04  2.46298391E-04  3.01175326E-04  3.66614748E-04  4.03607189E-04  3.93819580E-04  4.18528390E-04  4.37703413E-04  4.63793269E-04  4.77661811E-04  5.01267433E-04  4.36608592E-04  4.38672304E-04  3.39337370E-04  2.78233074E-04  2.32367611E-04  2.10012364E-04  2.17472610E-04  2.18641016E-04  2.41396458E-04
    2.65476459E-04  2.63235363E-04  2.75199759E-04  2.78367024E-04  3.03884855E-04  3.23367072E-04  3.34794849E-04  3.18562096E-04  3.25404136E-04  3.05343964E-04  2.93604526E-04  2.75798226E-04  2.70228660E-04  2.53563249E-04  2.92496357E-04  3.12428062E-04  3.30745779E-04  3.50648324E-04  3.45113710E-04  3.34119960E-04
    3.00783700E-04  2.67848985E-04  2.32158981E-04  2.04023422E-04  1.78980059E-04  1.64875885E-04  1.65951558E-04  1.71273648E-04  1.75418530E-04  1.92690776E-04  2.45794687E-04  2.73967149E-04  3.38358714E-04  3.86403958E-04  4.81268719E-04  5.17570045E-04  5.69008445E-04  6.04645142E-04  6.30057240E-04  6.02556042E-04
    2.38900677E-04  2.42091969E-04  2.61908714E-04  2.61602488E-04  2.64914787E-04  2.42662739E-04  2.23476494E-04  2.10281840E-04  1.82719965E-04  1.65366833E-04  1.26309884E-04  9.67379846E-05  7.42199094E-05  5.65967552E-05  4.60553527E-05  4.44473305E-05  4.45015393E-05  4.35859372E-05  4.71656548E-05  5.16936450E-05
    5.27695351E-05  5.45566380E-05  5.75252011E-05  5.72685422E-05  5.74280544E-05  5.52509080E-05  5.81785797E-05  6.87121026E-05  7.62989777E-05  7.77759846E-05  8.45973956E-05  8.56319112E-05  8.51478960E-05  8.85922373E-05  8.60933821E-05  9.14355718E-05  1.06239265E-04  1.13067679E-04  1.34691840E-04  1.56677748E-04
    1.70438535E-04  2.10884022E-04  2.63051083E-04  3.31257294E-04  3.79551082E-04  3.77912241E-04  3.90036059E-04  3.91905521E-04  4.15366985E-04  4.44058213E-04  4.75617307E-04  4.21434295E-04  4.20173722E-04  3.40404471E-04  2.71592372E-04  2.34170958E-04  2.12955104E-04  2.07636634E-04  1.97292542E-04  2.19432173E-04
    2.43013266E-04  2.49171578E-04  2.70618633E-04  2.73032655E-04  2.79878342E-04  3.09456410E-04  3.13157558E-04  3.02217374E-04  3.00383975E-04  2.72285598E-04  2.68137657E-04  2.63815048E-04  2.84331391E-04  2.88658776E-04  3.55036820E-04  3.77043577E-04  3.91757105E-04  4.16670682E-04  4.16118423E-04  3.97354682E-04
    3.51627883E-04  2.97564716E-04  2.38101372E-04  2.09991320E-04  1.82487003E-04  1.62844706E-04  1.55130529E-04  1.55609215E-04  1.65814235E-04  1.83403396E-04  2.31838531E-04  2.71988582E-04  3.13320620E-04  3.56128156E-04  4.12985856E-04  4.15611141E-04  4.61985351E-04  4.92916815E-04  5.03870675E-04  4.50661203E-04
    2.20737294E-04  2.40786954E-04  2.72481470E-04  2.66689803E-04  2.64097513E-04  2.53006555E-04  2.39039997E-04  2.17651859E-04  1.95021257E-04  1.80479640E-04  1.38131505E-04  1.07449315E-04  8.13705191E-05  6.41433797E-05  5.16702634E-05  5.17379485E-05  5.29439596E-05  4.98231835E-05  5.78765122E-05  6.61484225E-05
    6.53902995E-05  6.30081272E-05  6.17944443E-05  5.95557321E-05  5.94978506E-05  6.15834411E-05  6.31421043E-05  7.30723707E-05  7.96303998E-05  7.93660019E-05  7.96644336E-05  8.15883024E-05  8.07216567E-05  8.04346694E-05  7.23921902E-05  7.34562072E-05  8.22091769E-05  9.71470490E-05  1.19450277E-04  1.37379548E-04
    1.42763119E-04  1.72516453E-04  2.18789173E-04  2.76953006E-04  3.26812951E-04  3.39620309E-04  3.61319698E-04  3.59414469E-04  3.60950551E-04  3.86824604E-04  4.11131572E-04  3.69348309E-04  4.00825372E-04  3.45714807E-04  2.98320387E-04  2.57565183E-04  2.19165020E-04  2.06618895E-04  2.01802020E-04  2.17034174E-04
    2.47547270E-04  2.73348418E-04  2.95938287E-04  2.82278662E-04  2.97268336E-04  3.25997275E-04  3.02885469E-04  2.90066322E-04  2.95535468E-04  2.76509014E-04  2.86593506E-04  3.02634669E-04  3.48221833E-04  3.49696561E-04  4.46000715E-04  4.57821326E-04  4.53180910E-04  4.56146918E-04  4.44438549E-04  3.95781070E-04
    3.27105173E-04  2.79017145E-04  2.25277239E-04  2.10863254E-04  1.96526673E-04  1.74830760E-04  1.61129962E-04  1.62396402E-04  1.73651674E-04  1.93884666E-04  2.28424888E-04  2.57202127E-04  3.05477009E-04  3.29149070E-04  3.36661384E-04  3.46032743E-04  3.96323900E-04  3.84373717E-04  3.72282062E-04  3.29807644E-04
    1.97627757E-04  2.24270963E-04  2.42391463E-04  2.34490740E-04  2.40314041E-04  2.44430649E-04  2.24829981E-04  2.21442658E-04  2.03920441E-04  1.97831008E-04  1.53752003E-04  1.17443905E-04  8.97064808E-05  7.45307333E-05  6.63936715E-05  6.36133464E-05  6.36559332E-05  6.16632672E-05  7.19819324E-05  7.85485572E-05
    7.78904234E-05  7.30985668E-05  6.59892331E-05  6.20524345E-05  6.46527517E-05  6.64624672E-05  6.92120644E-05  8.02578605E-05  8.84256790E-05  8.73853074E-05  8.43166207E-05  8.25733176E-05  8.27072705E-05  7.70164353E-05  6.79115213E-05  7.01165367E-05  8.13360255E-05  9.05802288E-05  1.09230270E-04  1.20532926E-04
    1.23548841E-04  1.45048103E-04  1.81156346E-04  2.24622719E-04  2.49416226E-04  2.46284573E-04  2.70580981E-04  2.94097103E-04  3.14046418E-04  3.23789671E-04  3.39123342E-04  3.25912361E-04  3.68951546E-04  3.35861136E-04  2.94284350E-04  2.65973596E-04  2.28812581E-04  2.19973611E-04  2.00384056E-04  2.07376825E-04
    2.36526347E-04  2.65246491E-04  2.91434208E-04  2.94514506E-04  3.16806574E-04  3.25581737E-04  3.12445202E-04  3.07418218E-04  3.13560515E-04  2.97437132E-04  3.27845132E-04  3.64660101E-04  3.95711247E-04  4.17076323E-04  5.00229314E-04  5.18717864E-04  4.84890580E-04  4.88335557E-04  4.14790797E-04  3.48547169E-04
    3.02417895E-04  2.53902244E-04  2.28479144E-04  2.24691077E-04  2.05759339E-04  1.87529277E-04  1.75637054E-04  1.82376276E-04  1.90754119E-04  2.05322009E-04  2.30347168E-04  2.57692080E-04  3.03282134E-04  2.93756462E-04  2.94205044E-04  2.90181666E-04  3.11057775E-04  3.01305401E-04  2.91453512E-04  2.54173776E-04
    1.60663233E-04  1.90830876E-04  2.14232224E-04  2.08924903E-04  2.24944242E-04  2.26392784E-04  2.11388769E-04  2.02434905E-04  1.88671380E-04  1.90160542E-04  1.57099952E-04  1.18989948E-04  9.61795651E-05  8.03799951E-05  7.22191813E-05  7.10816393E-05  7.00904486E-05  6.77417867E-05  7.51793226E-05  8.20909768E-05
    7.89704203E-05  6.90278094E-05  6.27832135E-05  6.10488486E-05  6.36576694E-05  6.90026540E-05  7.93309595E-05  9.27156592E-05  1.04771027E-04  1.05431573E-04  1.03473537E-04  9.26874520E-05  9.16389669E-05  8.49507087E-05  7.52837409E-05  7.57385676E-05  8.02380837E-05  7.82228179E-05  8.38479271E-05  9.47850019E-05
    9.92278210E-05  1.17662192E-04  1.44402164E-04  1.74215150E-04  1.82514260E-04  1.77658457E-04  1.97024303E-04  2.17098532E-04  2.29957578E-04  2.33121950E-04  2.49507750E-04  2.42428614E-04  2.79803404E-04  2.59477100E-04  2.41983445E-04  2.27757383E-04  2.17729233E-04  2.15961663E-04  2.00554041E-04  2.08402239E-04
    2.42018003E-04  2.78925138E-04  3.12589303E-04  3.16197953E-04  3.33377497E-04  3.48770669E-04  3.45639482E-04  3.18198534E-04  3.23637234E-04  3.12176054E-04  3.32824993E-04  3.69897627E-04  4.18719058E-04  4.36891018E-04  5.19507256E-04  5.11716760E-04  4.93660159E-04  4.55590519E-04  3.71406807E-04  3.28930212E-04
    2.76224348E-04  2.53918045E-04  2.34378921E-04  2.22210857E-04  2.06045949E-04  1.94948249E-04  1.96913198E-04  2.16723892E-04  2.11850803E-04  2.10943436E-04  2.33227103E-04  2.49367840E-04  2.76578115E-04  2.65558973E-04  2.55649345E-04  2.34200821E-04  2.42793594E-04  2.31896361E-04  2.21625905E-04  1.89093473E-04
    1.19484165E-04  1.49687689E-04  1.71969904E-04  1.83168122E-04  2.06859419E-04  2.06788100E-04  1.97696963E-04  1.87862172E-04  1.74888448E-04  1.85046787E-04  1.58100257E-04  1.22941030E-04  9.79170972E-05  8.38632230E-05  7.81883412E-05  7.95611050E-05  7.55716473E-05  7.21532736E-05  8.03467014E-05  8.56877424E-05
    8.56877424E-05  8.56877424E-05  8.56877424E-05  8.01918633E-05  7.06181929E-05  6.59919273E-05  6.59771724E-05  7.12008388E-05  7.89485659E-05  8.92165169E-05  1.06045335E-04  1.17705128E-04  1.20785849E-04  1.20447229E-04  1.13375553E-04  1.11113679E-04  9.63005007E-05  7.94121296E-05  7.62475402E-05  7.40145539E-05
    6.48503736E-05  6.34887918E-05  6.96719449E-05  7.22586382E-05  9.07950613E-05  1.14701011E-04  1.24643083E-04  1.28427138E-04  1.28374393E-04  1.41148033E-04  1.60820393E-04  1.60662079E-04  1.61901732E-04  1.68497030E-04  1.57561206E-04  1.83134037E-04  1.72810264E-04  1.83815165E-04  2.03916089E-04  2.00866664E-04
    2.12305786E-04  2.15503226E-04  2.35141770E-04  2.35141770E-04  2.35141770E-04  2.35141770E-04  2.71995011E-04  3.06525447E-04  3.23948648E-04  3.20450384E-04  3.37785325E-04  3.70720866E-04  3.58374929E-04  3.19006361E-04  3.14935047E-04  3.00317022E-04  3.15355165E-04  3.58212380E-04  4.19817383E-04  4.21937084E-04
    4.95921786E-04  4.89438662E-04  4.48954056E-04  3.99989817E-04  3.32045663E-04  2.90108911E-04  2.68388524E-04  2.46517399E-04  2.29646985E-04  2.25210190E-04  2.10794639E-04  2.07839258E-04  2.21410055E-04  2.31735504E-04  2.11528378E-04  1.98332756E-04  2.16836321E-04  2.17694314E-04  2.38381106E-04  2.31896086E-04
    2.14127631E-04  2.01467044E-04  2.14687500E-04  2.02484195E-04  1.85880522E-04  1.63676438E-04  9.32984562E-05  1.17097538E-04  1.36572080E-04  1.47949961E-04  1.70829971E-04  1.82452008E-04  1.77403122E-04  1.66249722E-04  1.58176825E-04  1.67920014E-04  1.45781132E-04  1.18568732E-04  9.94919566E-05  8.54731192E-05
    8.03349509E-05  7.75426485E-05  7.47225968E-05  7.47102840E-05  8.21085167E-05  8.21085167E-05  8.21085167E-05  8.21085167E-05  8.54452631E-05  8.54452631E-05  8.54452631E-05  8.54452631E-05  8.54452631E-05  8.54452631E-05  8.54452631E-05  8.54452631E-05  8.54452631E-05  8.54452631E-05  8.54452631E-05  8.54452631E-05
    8.54452631E-05  8.54452631E-05  8.54452631E-05  8.54452631E-05  8.54452631E-05  8.54452631E-05  8.54452631E-05  8.54452631E-05  8.54452631E-05  8.54452631E-05  8.54452631E-05  8.54452631E-05  8.54452631E-05  8.54452631E-05  8.54452631E-05  8.54452631E-05  8.54452631E-05  8.54452631E-05  8.54452631E-05  8.54452631E-05
    8.54452631E-05  8.54452631E-05  8.54452631E-05  8.54452631E-05  8.54452631E-05  8.54452631E-05  8.54452631E-05  8.54452631E-05  8.17184864E-05  8.17184864E-05  8.17184864E-05  8.17184864E-05  7.74525909E-05  7.97749361E-05  8.08453214E-05  8.57985197E-05  9.50331450E-05  1.06818086E-04  1.21037048E-04  1.28387530E-04
    1.30137910E-04  1.38149173E-04  1.28723027E-04  1.17829535E-04  1.02300915E-04  8.24434584E-05  7.11494358E-05  6.60328070E-05  5.77440142E-05  5.75824801E-05  5.82172666E-05  5.93820327E-05  6.59772423E-05  7.75934753E-05  8.48490850E-05  8.74207043E-05  9.28950591E-05  1.04744784E-04  1.08170312E-04  1.03597393E-04
    1.04831168E-04  1.19273605E-04  1.13053654E-04  1.34593614E-04  1.30205473E-04  1.40694440E-04  1.60269815E-04  1.69031768E-04  1.94960293E-04  2.28609049E-04  2.28609049E-04  2.28609049E-04  2.28609049E-04  2.65752159E-04  2.65752159E-04  2.65752159E-04  2.65752159E-04  2.65752159E-04  2.65752159E-04  2.65752159E-04
    2.65752159E-04  2.65752159E-04  2.65752159E-04  2.65752159E-04  2.65752159E-04  2.65752159E-04  2.65752159E-04  2.65752159E-04  2.65752159E-04  2.65752159E-04  2.65752159E-04  2.65752159E-04  2.65752159E-04  2.65752159E-04  2.65752159E-04  2.65752159E-04  2.65752159E-04  2.65752159E-04  2.65752159E-04  2.65752159E-04
    2.65752159E-04  2.65752159E-04  2.65752159E-04  2.65752159E-04  2.65752159E-04  2.65752159E-04  2.65752159E-04  2.65752159E-04  2.65752159E-04  2.65752159E-04  2.65752159E-04  2.65752159E-04  2.65752159E-04  3.02469828E-04  3.02469828E-04  3.02469828E-04  3.02469828E-04  3.18148720E-04  3.20456929E-04  3.18406416E-04
    3.48087902E-04  3.44115913E-04  3.13893643E-04  2.85988894E-04  2.99821755E-04  2.98671677E-04  3.19167018E-04  3.62766452E-04  4.20200216E-04  3.94287477E-04  4.61311654E-04  4.38021524E-04  3.80321062E-04  3.46736629E-04  2.98384248E-04  2.72312924E-04  2.51074232E-04  2.36579332E-04  2.33360131E-04  2.34983467E-04
    2.25463065E-04  2.25742439E-04  2.30402679E-04  2.25900160E-04  1.99971005E-04  1.90164894E-04  1.83052488E-04  1.81295236E-04  2.06409404E-04  2.02276589E-04  1.85127953E-04  1.88890600E-04  2.09397777E-04  1.97578171E-04  1.81452074E-04  1.48665099E-04  8.59081694E-05  1.00651776E-04  1.16801472E-04  1.28119859E-04
    1.45845000E-04  1.52506264E-04  1.52694514E-04  1.55689945E-04  1.53657237E-04  1.62194410E-04  1.39201238E-04  1.16607181E-04  1.02167773E-04  8.85387306E-05  8.02635716E-05  7.98472072E-05  7.74712494E-05  7.28508587E-05  8.21949359E-05  9.16246236E-05  9.16246236E-05  9.16246236E-05  9.16246236E-05  9.08164461E-05
    9.03781219E-05  9.53403439E-05  1.00478558E-04  1.04207480E-04  1.18259875E-04  1.26545827E-04  1.34965691E-04  1.44377868E-04  1.54888133E-04  1.67015281E-04  1.50013430E-04  1.25116538E-04  1.06332248E-04  8.28598001E-05  6.99297057E-05  6.06755133E-05  5.32082774E-05  5.54923364E-05  5.39439681E-05  4.74171234E-05
    5.10268946E-05  5.53400746E-05  6.12823722E-05  6.54117162E-05  6.58299470E-05  7.53035791E-05  7.44357417E-05  7.23613819E-05  7.88766437E-05  9.34067023E-05  9.07180929E-05  1.08704136E-04  1.08664949E-04  1.23199883E-04  1.46317314E-04  1.67297149E-04  1.88698199E-04  2.12568413E-04  2.51943506E-04  2.51943506E-04
    2.51943506E-04  2.51943506E-04  3.01077690E-04  3.11051418E-04  3.35491628E-04  3.27665369E-04  3.30714095E-04  3.31697877E-04  3.09235035E-04  2.83851902E-04  2.92283886E-04  2.90744772E-04  3.20366261E-04  3.52786268E-04  3.83371667E-04  3.72670980E-04  4.05006739E-04  3.75691572E-04  3.27740592E-04  3.03022773E-04
    2.51669862E-04  2.40012149E-04  2.31920524E-04  2.29709297E-04  2.31944817E-04  2.41536431E-04  2.45474007E-04  2.35661564E-04  2.28841408E-04  2.13010870E-04  1.85354427E-04  1.76544194E-04  1.76720413E-04  1.74203324E-04  1.83828789E-04  1.81223278E-04  1.82912184E-04  1.93995113E-04  2.16633952E-04  2.03912700E-04
    1.80470890E-04  1.46492759E-04  9.12631612E-05  1.03164442E-04  1.17430778E-04  1.23846986E-04  1.35852830E-04  1.36212003E-04  1.35811603E-04  1.45105368E-04  1.46202640E-04  1.57428841E-04  1.34948069E-04  1.11498797E-04  1.01847968E-04  9.25972968E-05  8.51232755E-05  8.45681010E-05  8.00909762E-05  7.83218799E-05
    9.22994606E-05  1.02815460E-04  1.04535174E-04  1.05130711E-04  1.14461158E-04  1.25033776E-04  1.30019380E-04  1.39169194E-04  1.47122301E-04  1.57242292E-04  1.70663841E-04  1.87084795E-04  1.92692798E-04  1.59243670E-04  1.31974605E-04  1.09105526E-04  8.63959986E-05  7.15836364E-05  6.53449514E-05  5.53993933E-05
    5.44735129E-05  4.91179226E-05  4.21167803E-05  4.18693236E-05  4.53581535E-05  5.03838264E-05  5.18983366E-05  5.28248150E-05  5.89260841E-05  6.26976791E-05  6.33072644E-05  7.10428331E-05  8.48390855E-05  8.31195421E-05  1.02631142E-04  1.07790721E-04  1.31409101E-04  1.70205621E-04  1.91723660E-04  2.12558048E-04
    2.26765032E-04  2.70319030E-04  3.09226005E-04  3.43503534E-04  3.56060018E-04  3.41297452E-04  3.42059581E-04  3.33132560E-04  3.01342461E-04  2.83238487E-04  3.04688295E-04  3.02005661E-04  2.99768153E-04  3.16899077E-04  3.54429679E-04  3.29299650E-04  3.57153697E-04  3.28090367E-04  2.74587231E-04  2.42071702E-04
    1.98885676E-04  1.93809451E-04  2.01538934E-04  2.20424172E-04  2.37421334E-04  2.53390340E-04  2.51560688E-04  2.38780449E-04  2.26368539E-04  2.01038914E-04  1.77786456E-04  1.62462949E-04  1.59312335E-04  1.54383559E-04  1.74594564E-04  1.89804312E-04  1.95595432E-04  2.00464870E-04  2.21264478E-04  2.04811585E-04
    1.80177996E-04  1.52990029E-04  9.62334138E-05  1.11179939E-04  1.27306047E-04  1.25577007E-04  1.23138249E-04  1.21050220E-04  1.19520897E-04  1.33818202E-04  1.34931578E-04  1.38955046E-04  1.24727606E-04  1.07746108E-04  9.90030666E-05  8.98408976E-05  8.82657628E-05  8.90751535E-05  8.69363521E-05  8.79000608E-05
    1.01219106E-04  1.12497225E-04  1.19640837E-04  1.24179236E-04  1.39545025E-04  1.50205445E-04  1.50390313E-04  1.55214010E-04  1.59504356E-04  1.75064839E-04  1.87052835E-04  1.90880363E-04  1.90032446E-04  1.56170463E-04  1.30526773E-04  1.10641778E-04  8.79480846E-05  7.17243829E-05  6.73551322E-05  5.50652186E-05
    4.76414893E-05  4.19511585E-05  3.70774460E-05  3.58470135E-05  3.99680207E-05  4.24575050E-05  4.43851611E-05  4.59501248E-05  5.31481636E-05  5.97698682E-05  6.38866211E-05  7.70231506E-05  8.93287566E-05  8.73724305E-05  1.07822948E-04  1.12982447E-04  1.48873387E-04  1.96982773E-04  2.39161456E-04  2.74590152E-04
    2.94944595E-04  3.38416227E-04  3.65721155E-04  3.79373748E-04  3.90240948E-04  3.64187947E-04  3.62799159E-04  3.57547680E-04  3.39810069E-04  3.04827823E-04  3.22935756E-04  3.02319366E-04  2.93291249E-04  3.06839447E-04  3.42129395E-04  3.19898372E-04  3.30384262E-04  2.83110858E-04  2.27817995E-04  2.04668667E-04
    1.87146383E-04  2.02607336E-04  2.12483706E-04  2.29014721E-04  2.51180776E-04  2.68560333E-04  2.60128334E-04  2.46339306E-04  2.18337812E-04  1.95299575E-04  1.77341594E-04  1.64920628E-04  1.63865630E-04  1.62355695E-04  1.89579745E-04  1.96969097E-04  1.93912706E-04  1.87108416E-04  2.05944987E-04  1.96038969E-04
    1.78809272E-04  1.59137181E-04  9.80662469E-05  1.16445035E-04  1.23118986E-04  1.13947920E-04  1.16761178E-04  1.15364915E-04  1.22563948E-04  1.33094865E-04  1.30304504E-04  1.38407994E-04  1.30580430E-04  1.15963005E-04  1.13446028E-04  1.07053966E-04  1.05058546E-04  1.08300801E-04  1.01437350E-04  9.68149758E-05
    1.05924322E-04  1.17003781E-04  1.13344158E-04  1.29477277E-04  1.53269113E-04  1.64663146E-04  1.67539780E-04  1.65389986E-04  1.68492430E-04  1.84048655E-04  1.96033448E-04  1.92841876E-04  1.84023238E-04  1.46614780E-04  1.24003199E-04  1.06981628E-04  8.13136637E-05  6.64706666E-05  6.18220915E-05  5.03420498E-05
    4.33869550E-05  3.94887755E-05  3.46045282E-05  3.38748121E-05  3.96283242E-05  4.23184371E-05  4.41118954E-05  4.88575822E-05  5.38712271E-05  5.77719651E-05  6.31149394E-05  7.70415777E-05  8.94618265E-05  9.28724782E-05  1.23320449E-04  1.37774010E-04  1.70104117E-04  2.11662951E-04  2.55277412E-04  3.04123707E-04
    3.65367685E-04  4.22145447E-04  4.34638982E-04  4.30507554E-04  4.44342927E-04  4.00078060E-04  3.83378402E-04  3.83107311E-04  3.59865716E-04  3.22502423E-04  3.28714707E-04  3.04109168E-04  2.88819291E-04  3.01450643E-04  3.17651964E-04  2.93454323E-04  2.98223358E-04  2.42031536E-04  2.01120665E-04  1.89100530E-04
    1.91958247E-04  2.17634924E-04  2.35826492E-04  2.55469100E-04  2.64560661E-04  2.90810451E-04  2.85335841E-04  2.70692323E-04  2.40339137E-04  2.01758352E-04  1.76035506E-04  1.64092133E-04  1.72526078E-04  1.75880441E-04  2.06441988E-04  2.08665228E-04  1.92745718E-04  1.73511908E-04  1.80377719E-04  1.75252494E-04
    1.68721978E-04  1.47932181E-04  8.58772850E-05  1.04663187E-04  1.13292004E-04  1.11827441E-04  1.15424221E-04  1.18787967E-04  1.25590380E-04  1.35438408E-04  1.28563731E-04  1.29884885E-04  1.23167244E-04  1.22625120E-04  1.19850025E-04  1.11529134E-04  1.15688669E-04  1.18786788E-04  1.11296581E-04  1.01189614E-04
    1.11755655E-04  1.15259246E-04  1.12214393E-04  1.18773904E-04  1.34092172E-04  1.44930498E-04  1.61023422E-04  1.78193918E-04  1.83143553E-04  1.88944151E-04  1.91181377E-04  1.85248587E-04  1.65221432E-04  1.35291590E-04  1.19473889E-04  1.03205138E-04  7.96442894E-05  6.29624355E-05  6.16352851E-05  5.09232502E-05
    4.38090988E-05  4.02727901E-05  3.59259395E-05  3.53132018E-05  4.01489353E-05  4.48738496E-05  4.94985210E-05  5.23890049E-05  5.72511502E-05  6.44976581E-05  7.29423912E-05  8.63542639E-05  1.03853938E-04  1.15137766E-04  1.56500825E-04  1.69974397E-04  2.05715999E-04  2.55502036E-04  3.01602303E-04  3.69380358E-04
    4.21214215E-04  4.77623148E-04  5.02405937E-04  5.19416528E-04  5.19805907E-04  4.77418089E-04  4.58647623E-04  4.57796128E-04  4.16377728E-04  3.57930066E-04  3.58474241E-04  3.30376700E-04  3.12261197E-04  3.08464653E-04  3.05570198E-04  2.68841895E-04  2.59754878E-04  2.22974821E-04  1.81061088E-04  1.90215730E-04
    1.97289188E-04  2.24531553E-04  2.52664197E-04  2.77886550E-04  3.04710705E-04  3.14239168E-04  3.04340015E-04  2.85499961E-04  2.56102421E-04  2.26077354E-04  1.96799122E-04  1.93335869E-04  2.02508295E-04  2.14162892E-04  2.41609187E-04  2.32624399E-04  1.96802968E-04  1.66427356E-04  1.69180046E-04  1.70308215E-04
    1.70344234E-04  1.55267666E-04  7.38673489E-05  9.24505396E-05  9.98371276E-05  9.97650719E-05  1.03305587E-04  1.16230859E-04  1.26518007E-04  1.34286500E-04  1.23497975E-04  1.23567141E-04  1.15760144E-04  1.12835622E-04  1.11999271E-04  1.07487431E-04  1.20665447E-04  1.22338431E-04  1.13861824E-04  1.05659720E-04
    1.12611041E-04  1.15264729E-04  1.08851357E-04  1.06278560E-04  1.19648866E-04  1.33846349E-04  1.50104472E-04  1.67145874E-04  1.82431652E-04  1.93422611E-04  1.95691641E-04  1.74410228E-04  1.47096138E-04  1.16877170E-04  1.04827557E-04  8.92576403E-05  6.88822033E-05  6.20054409E-05  6.41220379E-05  5.25790652E-05