# File generated by Flopy version 3.7.0 on 08/05/2024 at 09:37:51.
BEGIN options
END options

BEGIN griddata
  strt
    INTERNAL  FACTOR  1.0
        15.00000000      15.00000000      15.00000000      15.00000000      15.00000000      15.00000000      15.00000000      15.00000000      15.00000000      15.00000000      15.00000000      15.00000000      15.00000000      15.00000000      15.00000000      15.00000000      15.00000000      15.00000000      15.00000000      15.00000000
        15.00000000      15.00000000      15.00000000      15.00000000      15.00000000      15.00000000      15.00000000      15.00000000      15.00000000      15.00000000      15.00000000      15.00000000      15.00000000      15.00000000      15.00000000      15.00000000      15.00000000      15.00000000      15.00000000      15.00000000
        15.00000000      15.00000000      15.00000000      15.00000000      15.00000000      15.00000000      15.00000000      15.00000000      15.00000000      15.00000000      15.00000000      15.00000000      15.00000000      15.00000000      15.00000000      15.00000000      15.00000000      15.00000000      15.00000000      15.00000000
        15.00000000      15.00000000      15.00000000      15.00000000      15.00000000      15.00000000      15.00000000      15.00000000      15.00000000      15.00000000      15.00000000      15.00000000      15.00000000      15.00000000      15.00000000      15.00000000      15.00000000      15.00000000      15.00000000      15.00000000
        15.00000000      15.00000000      15.00000000      15.00000000      15.00000000      15.00000000      15.00000000      15.00000000      15.00000000      15.00000000      15.00000000      15.00000000      15.00000000      15.00000000      15.00000000      15.00000000      15.00000000      15.00000000      15.00000000      15.00000000
        15.03193312      15.03129694      15.03103865      15.03219897      15.03507997      15.03838061      15.04208587      15.04648778      15.05014924      15.05302852      15.05354787      15.05401124      15.05480356      15.05388710      15.05329180      15.05398821      15.05346000      15.05270437      15.05218439      15.05159900
        15.05159094      15.05307400      15.05300768      15.05341441      15.05426957      15.05493704      15.05858791      15.06552346      15.07228436      15.08057938      15.08787158      15.09405800      15.09957630      15.10657834      15.11436943      15.12420020      15.13542413      15.14309156      15.14761502      15.14346912
        15.13141506      15.11824761      15.10840018      15.10502607      15.10539085      15.10274639      15.10042561      15.10041865      15.10066141      15.10422758      15.10757322      15.10982995      15.11567066      15.12286400      15.13011495      15.13294767      15.13382791      15.13547594      15.13385963      15.13210341
        15.13250232      15.12902265      15.12543309      15.12545663      15.13140574      15.14019751      15.15032740      15.16154249      15.17569399      15.18494163      15.19229898      15.20527709      15.22228781      15.23002831      15.23433085      15.23435811      15.23352427      15.22782515      15.22018507      15.21596602
        15.20298431      15.18635560      15.18060715      15.18391366      15.18553157      15.18321324      15.17569730      15.16870286      15.16202247      15.15891178      15.15992144      15.16235398      15.16650979      15.17088789      15.17534431      15.18270249      15.18229244      15.17803417      15.17451884      15.16996531
        15.06632892      15.06606497      15.06572680      15.06674810      15.07057890      15.07495061      15.08011092      15.08589616      15.09152534      15.09620250      15.09897910      15.10112203      15.10309286      15.10428009      15.10474176      15.10592645      15.10703055      15.10768794      15.10792712      15.10842941
        15.10890977      15.10916189      15.10848291      15.10752012      15.10885099      15.11151135      15.11733610      15.12692191      15.13705168      15.14872235      15.16191168      15.17360913      15.18526382      15.19975622      15.21500143      15.23064654      15.25053595      15.26677636      15.27836179      15.27675877
        15.26099540      15.23882050      15.21814229      15.20766064      15.20644403      15.20429640      15.19899019      15.19678255      15.19858384      15.20145165      15.20603400      15.21026568      15.21812659      15.22809817      15.23911306      15.24744118      15.25158934      15.25422326      15.25413245      15.25137267
        15.25075438      15.24860714      15.24318107      15.24394105      15.25067158      15.26351480      15.27835902      15.29645913      15.31923050      15.33895772      15.35388687      15.37000393      15.39039601      15.40551281      15.41626167      15.41781682      15.41769602      15.41482829      15.40944479      15.40337825
        15.39179025      15.36926440      15.35344264      15.35384081      15.35604755      15.35707349      15.34728421      15.33608229      15.32488873      15.31707824      15.31809184      15.32449070      15.33147745      15.33824845      15.34568657      15.35802969      15.35996274      15.35568720      15.35283440      15.34941044
        15.10142858      15.10202509      15.10203672      15.10274479      15.10582107      15.10981615      15.11529215      15.12148752      15.12881777      15.13488038      15.14016809      15.14452530      15.14820278      15.15168586      15.15448250      15.15661466      15.16015894      15.16432712      15.16730775      15.16950623
        15.17070127      15.16983515      15.16751655      15.16562888      15.16532343      15.16918441      15.17551748      15.18583368      15.19816526      15.21087915      15.22682302      15.24381166      15.26291567      15.28370246      15.30526396      15.32764120      15.35363535      15.37823659      15.39623161      15.40021370
        15.38695658      15.36036905      15.33356633      15.31481079      15.30800657      15.30447221      15.29832197      15.29303840      15.29301421      15.29502755      15.29895087      15.30284030      15.30970822      15.32021819      15.33269508      15.34571589      15.35433432      15.35922893      15.36202969      15.36142159
        15.36035658      15.35917828      15.35582573      15.35658858      15.36301813      15.37590037      15.39280864      15.41306969      15.43868896      15.46496328      15.48929258      15.50927309      15.52678615      15.54513569      15.55989605      15.56659248      15.56665138      15.56829817      15.56730339      15.56509964
        15.55720705      15.53884765      15.51820728      15.51285087      15.51571116      15.51787716      15.51125640      15.49881656      15.48530438      15.47315139      15.47004777      15.47919544      15.48883322      15.49891103      15.50923635      15.52166289      15.52985339      15.52892079      15.52632959      15.52511584
        15.13658185      15.13758452      15.13802859      15.13898610      15.14137680      15.14498854      15.14985019      15.15639102      15.16385474      15.17154728      15.17897987      15.18532091      15.19089665      15.19598900      15.20111986      15.20597974      15.21171923      15.21917740      15.22611594      15.23080500
        15.23268416      15.23191206      15.22952034      15.22757057      15.22586356      15.22900389      15.23486755      15.24441449      15.25728859      15.27054277      15.28723457      15.30785527      15.33236504      15.35807371      15.38489641      15.41360318      15.44445638      15.47603269      15.49975481      15.51101353
        15.50387526      15.47896493      15.44938190      15.42503902      15.41014494      15.40281407      15.39680778      15.39031789      15.38454842      15.38391665      15.38607410      15.38873533      15.39402611      15.40264361      15.41459840      15.42899148      15.44150003      15.45115408      15.45764074      15.46093604
        15.46131832      15.46114241      15.46061603      15.46254035      15.46832534      15.47995744      15.49613816      15.51718944      15.54171649      15.57056338      15.60102322      15.62576113      15.64329654      15.66196521      15.67866159      15.68921046      15.69202909      15.69556751      15.69920490      15.69970536
        15.69650017      15.68656700      15.67085299      15.66083315      15.66052524      15.66230111      15.65939316      15.64878881      15.63674135      15.62263016      15.61460066      15.62008853      15.63225185      15.64522981      15.65811824      15.67000195      15.68368049      15.69043312      15.69108083      15.69028568
        15.17212653      15.17259904      15.17289319      15.17437954      15.17624716      15.17989450      15.18463275      15.19139385      15.19876946      15.20734772      15.21585454      15.22388855      15.23059049      15.23668426      15.24338355      15.25119055      15.25985055      15.26987595      15.28023084      15.28850073
        15.29292888      15.29342737      15.29306899      15.29129617      15.28963622      15.29181035      15.29687564      15.30518708      15.31656260      15.33011645      15.34628827      15.36854195      15.39467011      15.42398703      15.45507440      15.48799620      15.52362613      15.55971196      15.58941821      15.60844399
        15.60993542      15.59338755      15.56371398      15.53523405      15.51346993      15.50099346      15.49312767      15.48596773      15.47566110      15.46892743      15.46726470      15.46942568      15.47292319      15.47864692      15.48742781      15.50097511      15.51548827      15.52927425      15.54059389      15.54868092
        15.55172560      15.55295367      15.55467839      15.55990518      15.56716954      15.57793612      15.59164036      15.61053962      15.63363782      15.66255459      15.69464260      15.72280606      15.74458929      15.76214212      15.77839191      15.79001148      15.79663418      15.80094174      15.80646086      15.81025978
        15.81189905      15.81010268      15.80239018      15.79419163      15.79182483      15.79262495      15.79176282      15.78437279      15.77527294      15.76299652      15.75105553      15.75108509      15.76352837      15.77789799      15.79240372      15.80587091      15.82285511      15.83828154      15.84425942      15.84493290
        15.20732763      15.20730088      15.20727447      15.20843815      15.21026434      15.21367727      15.21897683      15.22573292      15.23326796      15.24182536      15.25098695      15.26027198      15.26782825      15.27515665      15.28330440      15.29313109      15.30437190      15.31643664      15.32883411      15.34024376
        15.34868517      15.35294735      15.35526070      15.35484797      15.35459062      15.35639543      15.36103405      15.36854913      15.37791146      15.39115010      15.40714466      15.42934205      15.45541566      15.48610229      15.51908829      15.55450579      15.59221359      15.63023104      15.66466791      15.69317537
        15.70757697      15.70095890      15.67489265      15.64226635      15.61679161      15.59964739      15.58789370      15.57860732      15.56643949      15.55490034      15.54816064      15.54715449      15.54757273      15.55031690      15.55571149      15.56661181      15.58108194      15.59680947      15.61297721      15.62584916
        15.63252969      15.63532915      15.63966741      15.64705726      15.65771856      15.66816238      15.68034978      15.69571155      15.71791615      15.74528276      15.77658234      15.80593949      15.83082710      15.84934903      15.86361335      15.87539612      15.88385346      15.88938858      15.89523557      15.90166139
        15.90694642      15.91081161      15.91028640      15.90675058      15.90686105      15.90799744      15.90878560      15.90631846      15.90047113      15.89261618      15.88170664      15.87720613      15.88476291      15.89921887      15.91495215      15.93143077      15.95120805      15.97193758      15.98126282      15.98496201
        15.24067863      15.24030650      15.24051606      15.24093696      15.24286227      15.24610984      15.25154441      15.25810779      15.26546274      15.27386328      15.28350101      15.29355166      15.30234274      15.31115304      15.32092297      15.33177719      15.34446907      15.35792782      15.37163847      15.38520592
        15.39696624      15.40635675      15.41266399      15.41532380      15.41792372      15.42021197      15.42507668      15.43247763      15.44183217      15.45454848      15.47060847      15.49108535      15.51717408      15.54766492      15.58047499      15.61580733      15.65245047      15.68984322      15.72696476      15.76379836
        15.79192934      15.79891000      15.78008617      15.74678069      15.71702978      15.69612490      15.68108755      15.66900889      15.65575120      15.64338868      15.63348280      15.62658953      15.62231778      15.62200562      15.62442079      15.63105242      15.64412568      15.66075024      15.67948715      15.69473744
        15.70501309      15.71089414      15.71770792      15.72622272      15.73830221      15.75009780      15.76186288      15.77688677      15.79662464      15.82156625      15.85042308      15.87943858      15.90526606      15.92547342      15.93963551      15.94996050      15.95881576      15.96530926      15.97205357      15.97893678
        15.98596024      15.99285614      15.99931121      16.00168735      16.00437040      16.00701529      16.00946785      16.01238871      16.01156139      16.00905079      16.00342776      15.99703133      15.99920697      16.01183435      16.02814194      16.04851079      16.07274563      16.09474232      16.10633732      16.11144747
        15.27344225      15.27276513      15.27303115      15.27297783      15.27459098      15.27808392      15.28311441      15.28907278      15.29605891      15.30441804      15.31394409      15.32414001      15.33427445      15.34449011      15.35530294      15.36714556      15.38045685      15.39482924      15.40970178      15.42510426
        15.43958358      15.45355324      15.46442112      15.47159544      15.47703114      15.48141569      15.48739180      15.49575662      15.50699379      15.51966049      15.53552855      15.55435808      15.57974111      15.60889040      15.63980897      15.67247509      15.70641112      15.74124431      15.77962207      15.82115908
        15.85912018      15.88018031      15.87384108      15.84703637      15.81492410      15.78965149      15.77087700      15.75620982      15.74227651      15.73022486      15.71999013      15.70967224      15.70100590      15.69660316      15.69549429      15.69772443      15.70818876      15.72557319      15.74398519      15.76026104
        15.77345044      15.78217788      15.79044038      15.80022370      15.81180813      15.82460562      15.83654790      15.85179324      15.86993119      15.89289573      15.91878304      15.94495118      15.96920659      15.99050307      16.00569835      16.01499087      16.02393573      16.03101108      16.03829689      16.04633723
        16.05386237      16.06276146      16.07304778      16.08181711      16.08677606      16.09093955      16.09519441      16.10044738      16.10488032      16.10749668      16.10735455      16.10407369      16.10476158      16.11476349      16.13154747      16.15602513      16.18333861      16.20546801      16.21973415      16.22458249
        15.30564620      15.30565292      15.30586369      15.30569876      15.30677170      15.30995756      15.31461192      15.31996175      15.32639480      15.33421580      15.34343302      15.35342887      15.36431486      15.37553586      15.38698570      15.39951251      15.41288446      15.42767422      15.44376976      15.46062685
        15.47801006      15.49513779      15.51008854      15.52191184      15.53084132      15.53904552      15.54741341      15.55730985      15.56984461      15.58335080      15.59879556      15.61668910      15.63952914      15.66648790      15.69494732      15.72445892      15.75522162      15.78798656      15.82653797      15.86960314
        15.91353401      15.94494858      15.95288588      15.93711537      15.90966258      15.88178245      15.85937469      15.84137218      15.82620035      15.81298660      15.80305343      15.79266361      15.78297824      15.77527418      15.77092304      15.76997828      15.77704365      15.79289570      15.81012033      15.82678086
        15.84130937      15.85212616      15.86072396      15.87053547      15.88135886      15.89207394      15.90429748      15.91825245      15.93634405      15.95749812      15.97983957      16.00191729      16.02322236      16.04352691      16.05914809      16.06930960      16.07843290      16.08644969      16.09427751      16.10352207
        16.11236273      16.12296638      16.13423197      16.14567951      16.15389326      16.15968842      16.16569685      16.17254891      16.18001616      16.18571287      16.18944957      16.19179978      16.19580470      16.20599530      16.22397303      16.24933331      16.27628323      16.29947690      16.31554018      16.32118010
        15.33702926      15.33758251      15.33802155      15.33811858      15.33887372      15.34150493      15.34552949      15.35039260      15.35618869      15.36291015      15.37188001      15.38155885      15.39222362      15.40393997      15.41587291      15.42821451      15.44181804      15.45667020      15.47339080      15.49134155
        15.51065582      15.53025107      15.54902829      15.56553612      15.57934977      15.59219938      15.60415659      15.61591911      15.62862153      15.64241369      15.65733525      15.67487300      15.69571911      15.72022994      15.74623901      15.77277796      15.80067448      15.83169544      15.86916248      15.91289850
        15.95899242      15.99678297      16.01777704      16.01406535      15.99535202      15.97033830      15.94691643      15.92631376      15.90930883      15.89352490      15.88251608      15.87371135      15.86561436      15.85852806      15.85330178      15.85049170      15.85368055      15.86494961      15.88072246      15.89637473
        15.91131447      15.92334920      15.93180663      15.93906104      15.94717334      15.95522643      15.96587942      15.97856266      15.99537618      16.01385208      16.03294197      16.05227842      16.07030842      16.08789149      16.10289511      16.11429516      16.12393597      16.13333863      16.14227758      16.15179024
        16.16237735      16.17400192      16.18570362      16.19768379      16.20849708      16.21692605      16.22498663      16.23331765      16.24210593      16.24942176      16.25576180      16.26226564      16.27209056      16.28529203      16.30489222      16.32902773      16.35405229      16.37690619      16.39285384      16.39937480
        15.36821807      15.36840940      15.36868569      15.36912100      15.36978048      15.37197460      15.37511861      15.37914040      15.38412804      15.39025785      15.39852176      15.40734221      15.41747974      15.42900058      15.44087380      15.45310828      15.46666747      15.48151037      15.49825024      15.51705831
        15.53725215      15.55933018      15.58162886      15.60286863      15.62160173      15.63859623      15.65444525      15.66853297      15.68152648      15.69490344      15.70952266      15.72701250      15.74754324      15.76988227      15.79332788      15.81650467      15.84186090      15.87141635      15.90852456      15.95252908
        15.99796845      16.03891178      16.06879570      16.07715336      16.06734777      16.04890941      16.02771107      16.00772095      15.98906052      15.97112586      15.95834288      15.95164310      15.94663735      15.94238877      15.93948982      15.93703211      15.93619420      15.94230973      15.95508248      15.96987359
        15.98434812      15.99594953      16.00279856      16.00595760      16.00916960      16.01448396      16.02244957      16.03392350      16.04813123      16.06383706      16.08015048      16.09671834      16.11214685      16.12670754      16.13956405      16.15152029      16.16199050      16.17260166      16.18308655      16.19293182
        16.20427086      16.21635565      16.22895973      16.24174374      16.25427407      16.26561925      16.27610913      16.28564471      16.29545363      16.30502182      16.31358941      16.32357401      16.33729999      16.35434514      16.37527782      16.39809942      16.41996048      16.44067502      16.45580566      16.46255330
        15.39895329      15.39868230      15.39886869      15.39956884      15.39989151      15.40126999      15.40345111      15.40659019      15.41082462      15.41629731      15.42328812      15.43131663      15.44078439      15.45167578      15.46320305      15.47523850      15.48819671      15.50298696      15.51989428      15.53921718
        15.56004216      15.58407553      15.61000525      15.63511480      15.65775280      15.67818169      15.69709586      15.71347459      15.72766556      15.74105793      15.75604381      15.77405753      15.79493948      15.81593818      15.83641983      15.85652703      15.87971822      15.90871598      15.94609508      15.98879796
        16.03229424      16.07407453      16.10863591      16.12697198      16.12651970      16.11520516      16.09907268      16.08285724      16.06464154      16.04619056      16.03245341      16.02651163      16.02446201      16.02384316      16.02501845      16.02542004      16.02314013      16.02431844      16.03264528      16.04605821
        16.06011276      16.06992513      16.07429134      16.07327322      16.07116813      16.07241471      16.07691045      16.08573704      16.09679593      16.11016474      16.12382002      16.13696043      16.15020231      16.16166991      16.17228292      16.18344295      16.19408426      16.20510535      16.21622302      16.22679889
        16.23820651      16.25073981      16.26421145      16.27852200      16.29284606      16.30726064      16.32015256      16.33189469      16.34289707      16.35487060      16.36635784      16.37897154      16.39412706      16.41294304      16.43381404      16.45456755      16.47374248      16.49172515      16.50618263      16.51310420
        15.42745613      15.42737624      15.42794338      15.42903187      15.42952924      15.42992072      15.43109094      15.43343160      15.43701398      15.44166473      15.44720800      15.45466949      15.46367370      15.47385676      15.48465843      15.49606218      15.50846989      15.52304632      15.54014455      15.55954692
        15.58113670      15.60690402      15.63553831      15.66325612      15.68848144      15.71181788      15.73329267      15.75207760      15.76800716      15.78272694      15.79859500      15.81701001      15.83742462      15.85737069      15.87515504      15.89342025      15.91500651      15.94350811      15.98028029      16.02151223
        16.06325999      16.10361019      16.14011910      16.16420900      16.17186167      16.16824939      16.15880437      16.14755649      16.13464140      16.11871049      16.10549964      16.09909259      16.09828875      16.10133454      16.10665001      16.11095159      16.11025010      16.10783033      16.11218024      16.12364543
        16.13589519      16.14423321      16.14665735      16.14215303      16.13395878      16.13032845      16.13075388      16.13569913      16.14359597      16.15387716      16.16496486      16.17503047      16.18538312      16.19420256      16.20264054      16.21197227      16.22196231      16.23237378      16.24294622      16.25382467
        16.26530614      16.27819777      16.29290348      16.30881512      16.32530628      16.34261920      16.35793272      16.37209976      16.38493543      16.39838304      16.41183909      16.42564296      16.44162708      16.46032930      16.47988141      16.49866190      16.51609399      16.53249566      16.54597740      16.55320145
        15.45235305      15.45330727      15.45461605      15.45662505      15.45810642      15.45832175      15.45878131      15.45994218      15.46248668      15.46665923      15.47133117      15.47829292      15.48719261      15.49654845      15.50647081      15.51692490      15.52885742      15.54315516      15.56032111      15.57988285
        15.60208420      15.62871974      15.65867771      15.68824935      15.71555884      15.74127156      15.76475310      15.78531741      15.80310861      15.81930382      15.83597449      15.85441130      15.87361154      15.89229059      15.90822877      15.92546680      15.94616546      15.97418625      16.01002923      16.05047050
        16.09068808      16.12856583      16.16470573      16.19177572      16.20550864      16.20923529      16.20678595      16.20095453      16.19495397      16.18562470      16.17579415      16.16959284      16.16883831      16.17375380      16.18173207      16.19045418      16.19435024      16.19235161      16.19296657      16.20063703
        16.21065650      16.21799926      16.21816276      16.21036212      16.19665939      16.18712775      16.18372957      16.18453392      16.18878903      16.19566596      16.20387414      16.21135452      16.21853193      16.22492034      16.23106507      16.23840837      16.24730994      16.25690693      16.26644948      16.27663241
        16.28799584      16.30104721      16.31669891      16.33412339      16.35329450      16.37280021      16.39072975      16.40661900      16.42093896      16.43488447      16.44847013      16.46298278      16.47954363      16.49803361      16.51659636      16.53405183      16.55041411      16.56618678      16.57850639      16.58573712
        15.47513726      15.47700359      15.47940029      15.48248059      15.48510558      15.48616861      15.48665491      15.48677579      15.48815456      15.49150605      15.49641431      15.50318716      15.51164264      15.52040368      15.52930929      15.53866944      15.55041026      15.56445217      15.58167754      15.60095021
        15.62332618      15.64979119      15.68056300      15.71171124      15.74063296      15.76738083      15.79187816      15.81368678      15.83292587      15.85028757      15.86755437      15.88546616      15.90354215      15.92066991      15.93586099      15.95239572      15.97274020      16.00023241      16.03540809      16.07549214
        16.11454624      16.15018896      16.18475825      16.21367245      16.23224779      16.24221243      16.24629264      16.24634182      16.24557218      16.24361483      16.24002602      16.23687441      16.23708458      16.24170943      16.25079514      16.26282097      16.27255281      16.27586327      16.27542609      16.27970941
        16.28757377      16.29262069      16.28883581      16.27645114      16.25870420      16.24311189      16.23506447      16.23149163      16.23195631      16.23526696      16.24018748      16.24536573      16.24957463      16.25367471      16.25806171      16.26377746      16.27142344      16.27995751      16.28850918      16.29760209
        16.30840847      16.32139610      16.33770680      16.35669555      16.37823168      16.39979098      16.41957992      16.43636334      16.45135589      16.46510157      16.47822454      16.49276063      16.50974898      16.52826972      16.54655168      16.56292686      16.57865298      16.59354222      16.60496533      16.61136439
        15.49662450      15.49887483      15.50225921      15.50583136      15.50926285      15.51147785      15.51282161      15.51316754      15.51384842      15.51640481      15.52174987      15.52875148      15.53629222      15.54441518      15.55250282      15.56134069      15.57264818      15.58651778      15.60334404      15.62222612
        15.64422603      15.67020101      15.70087165      15.73275463      15.76222829      15.78887899      15.81397226      15.83675257      15.85701408      15.87502266      15.89220315      15.90959219      15.92723356      15.94337065      15.95834753      15.97444357      15.99469265      16.02165671      16.05628697      16.09643254
        16.13478756      16.16884804      16.20202651      16.23169924      16.25380588      16.26881237      16.27824251      16.28361857      16.28735660      16.29080791      16.29330759      16.29529079      16.29852923      16.30340088      16.31275742      16.32618959      16.34000951      16.35035288      16.35515948      16.35934222
        16.36455500      16.36588820      16.35759802      16.33862380      16.31645148      16.29569789      16.28229343      16.27448780      16.27062990      16.27025762      16.27204332      16.27514216      16.27746568      16.28006208      16.28317472      16.28775909      16.29386893      16.30118818      16.30894573      16.31706249
        16.32715912      16.34017555      16.35704286      16.37738797      16.40084191      16.42400500      16.44457090      16.46187642      16.47701119      16.49042829      16.50270173      16.51679288      16.53331029      16.55187136      16.57019915      16.58612370      16.60117257      16.61497259      16.62546060      16.63089888
        15.51721335      15.51945802      15.52321985      15.52687037      15.53041079      15.53377709      15.53619492      15.53776682      15.53888391      15.54148513      15.54676215      15.55368438      15.56074013      15.56820454      15.57555502      15.58438189      15.59525862      15.60900211      15.62511818      15.64360892
        15.66479829      15.68968927      15.71918208      15.75065462      15.77956096      15.80629964      15.83138288      15.85438230      15.87516418      15.89361002      15.91093420      15.92847665      15.94603474      15.96179354      15.97643268      15.99232290      16.01261785      16.03930929      16.07350792      16.11364424