# File generated by Flopy version 3.7.0 on 07/05/2024 at 17:02:10.
BEGIN options
END options

BEGIN griddata
  strt
    INTERNAL  FACTOR  1.0
        15.00000000      15.00000000      15.00000000      15.00000000      15.00000000      15.00000000      15.00000000      15.00000000      15.00000000      15.00000000      15.00000000      15.00000000      15.00000000      15.00000000      15.00000000      15.00000000      15.00000000      15.00000000      15.00000000      15.00000000
        15.00000000      15.00000000      15.00000000      15.00000000      15.00000000      15.00000000      15.00000000      15.00000000      15.00000000      15.00000000      15.00000000      15.00000000      15.00000000      15.00000000      15.00000000      15.00000000      15.00000000      15.00000000      15.00000000      15.00000000
        15.00000000      15.00000000      15.00000000      15.00000000      15.00000000      15.00000000      15.00000000      15.00000000      15.00000000      15.00000000      15.00000000      15.00000000      15.00000000      15.00000000      15.00000000      15.00000000      15.00000000      15.00000000      15.00000000      15.00000000
        15.00000000      15.00000000      15.00000000      15.00000000      15.00000000      15.00000000      15.00000000      15.00000000      15.00000000      15.00000000      15.00000000      15.00000000      15.00000000      15.00000000      15.00000000      15.00000000      15.00000000      15.00000000      15.00000000      15.00000000
        15.00000000      15.00000000      15.00000000      15.00000000      15.00000000      15.00000000      15.00000000      15.00000000      15.00000000      15.00000000      15.00000000      15.00000000      15.00000000      15.00000000      15.00000000      15.00000000      15.00000000      15.00000000      15.00000000      15.00000000
        15.04560528      15.04640835      15.04712094      15.04619059      15.04330812      15.03908860      15.03420897      15.03012958      15.02636660      15.02234052      15.01869678      15.01599747      15.01369184      15.01189585      15.01087079      15.01043431      15.01039782      15.01047748      15.01082265      15.01114186
        15.01129021      15.01148024      15.01174987      15.01241953      15.01329399      15.01442089      15.01618928      15.01865611      15.02166291      15.02465775      15.02713102      15.02884930      15.03046824      15.03266982      15.03551220      15.03763981      15.03834804      15.03861647      15.03859083      15.03808505
        15.03745822      15.03557182      15.03273478      15.03010412      15.02793441      15.02661171      15.02626605      15.02699163      15.02864594      15.02994809      15.03070308      15.03027662      15.02911688      15.02741756      15.02556957      15.02375070      15.02320334      15.02366030      15.02338900      15.02217349
        15.02054960      15.01914940      15.01846585      15.01828470      15.01871975      15.01891257      15.01871010      15.01823821      15.01751959      15.01691341      15.01707714      15.01826454      15.02106514      15.02420889      15.02622371      15.02725339      15.02781348      15.02799523      15.02797197      15.02886862
        15.03070779      15.03377767      15.03835017      15.04398066      15.04911611      15.05352496      15.05808162      15.06210458      15.06705639      15.07284792      15.07993477      15.08891829      15.09668996      15.10072155      15.10299775      15.10164977      15.09896567      15.09656102      15.09645718      15.09873825
        15.08434261      15.08449156      15.08337721      15.07987749      15.07366020      15.06645985      15.05927054      15.05268535      15.04674424      15.04058603      15.03468042      15.03008390      15.02669981      15.02439576      15.02309780      15.02271143      15.02289900      15.02328088      15.02356559      15.02368379
        15.02365411      15.02384902      15.02442090      15.02550423      15.02722794      15.02937751      15.03254817      15.03717430      15.04221667      15.04677791      15.05039879      15.05342810      15.05692880      15.06151404      15.06653897      15.07006356      15.07329932      15.07667234      15.07882637      15.07995546
        15.07973525      15.07768318      15.07441033      15.07066005      15.06769661      15.06711719      15.06938075      15.07210538      15.07460189      15.07599245      15.07535118      15.07339818      15.06941172      15.06412230      15.06102865      15.05946067      15.05818062      15.05650025      15.05332118      15.04969833
        15.04704530      15.04571826      15.04538593      15.04602616      15.04682849      15.04746392      15.04714510      15.04672595      15.04686983      15.04750533      15.04922117      15.05173260      15.05484955      15.05703713      15.05809065      15.05851804      15.05820676      15.05738333      15.05694546      15.05920683
        15.06343780      15.06877026      15.07598033      15.08389078      15.09268354      15.10175321      15.11045629      15.11872800      15.12780845      15.13923552      15.15131942      15.16408377      15.17398939      15.17949327      15.18233437      15.18394212      15.18733932      15.19392058      15.20253010      15.20777456
        15.11156603      15.10954316      15.10551624      15.09987592      15.09269859      15.08510968      15.07791810      15.07070493      15.06370951      15.05674364      15.05043692      15.04519018      15.04133348      15.03887077      15.03748163      15.03687847      15.03674643      15.03660633      15.03618325      15.03563086
        15.03543563      15.03586970      15.03679307      15.03822133      15.04054386      15.04411330      15.04906529      15.05524271      15.06147928      15.06686021      15.07182035      15.07684809      15.08258723      15.08924471      15.09644706      15.10344345      15.11127150      15.11887267      15.12569039      15.13196113
        15.13467806      15.13397179      15.13201221      15.13092288      15.13211928      15.13518917      15.13753578      15.13947927      15.14072697      15.13883458      15.13376825      15.12734646      15.12015780      15.11364999      15.10786078      15.10420806      15.10048257      15.09554803      15.08987009      15.08543351
        15.08281858      15.08238126      15.08321357      15.08512981      15.08643461      15.08701557      15.08675861      15.08603101      15.08589651      15.08587258      15.08608034      15.08609952      15.08576251      15.08540342      15.08578775      15.08701905      15.08846580      15.09023264      15.09258526      15.09660573
        15.10211801      15.10844091      15.11700084      15.12835346      15.14087365      15.15221154      15.16347062      15.17544553      15.18823140      15.20218959      15.21504186      15.22472644      15.23386735      15.24278551      15.25303682      15.26514720      15.27887721      15.29342463      15.30420565      15.30952800
        15.12498689      15.12242656      15.11823725      15.11290140      15.10664792      15.10014822      15.09358688      15.08689412      15.08032638      15.07392364      15.06799003      15.06297998      15.05893326      15.05573054      15.05349754      15.05176906      15.05023612      15.04862831      15.04732102      15.04659375
        15.04674280      15.04777249      15.04938138      15.05207588      15.05597777      15.06114549      15.06741263      15.07406089      15.08089511      15.08801696      15.09528087      15.10282724      15.11072863      15.11998016      15.13059750      15.14335356      15.15740801      15.17163298      15.18610442      15.19827829
        15.20697701      15.21158607      15.21759436      15.22401687      15.22834976      15.23063361      15.22765645      15.22357375      15.21814554      15.21006116      15.19986017      15.18846151      15.17734591      15.16848334      15.16008073      15.15200921      15.14389892      15.13618515      15.13017234      15.12608734
        15.12442978      15.12466369      15.12613384      15.12780675      15.12805564      15.12708790      15.12577694      15.12336564      15.12021922      15.11677167      15.11375530      15.11134459      15.11024337      15.11145290      15.11551240      15.12142993      15.12803508      15.13476236      15.14113923      15.14668352
        15.15191587      15.15868175      15.16926911      15.18298759      15.19627838      15.20873803      15.22248825      15.23768804      15.25224352      15.26443055      15.27545018      15.28685128      15.29967429      15.31470338      15.33248618      15.35131854      15.37213304      15.39134491      15.40523776      15.41387504
        15.13448478      15.13222491      15.12903766      15.12509777      15.12008528      15.11463136      15.10913659      15.10353893      15.09839186      15.09349466      15.08875474      15.08436149      15.07986210      15.07520113      15.07101282      15.06731777      15.06418982      15.06177887      15.06013214      15.05992026
        15.06079501      15.06273180      15.06585169      15.07063429      15.07663467      15.08268647      15.08921449      15.09690685      15.10530597      15.11486879      15.12477930      15.13488248      15.14643208      15.16074138      15.17797244      15.19660866      15.21748751      15.24052801      15.26498840      15.28625609
        15.30702658      15.32384973      15.33732737      15.34334804      15.34253628      15.33601983      15.32601943      15.31343375      15.29775950      15.28149830      15.26467822      15.24816571      15.23251040      15.21837021      15.20645597      15.19493199      15.18437647      15.17621782      15.17100569      15.16821015
        15.16743442      15.16771200      15.16769634      15.16700072      15.16498903      15.16117902      15.15632258      15.15103130      15.14554842      15.14083737      15.13771998      15.13701466      15.13975297      15.14718243      15.15866622      15.17106518      15.18363677      15.19447250      15.20284713      15.20964398
        15.21641120      15.22571802      15.23810963      15.25145835      15.26464368      15.27949595      15.29487734      15.31136509      15.32561847      15.33745717      15.35117829      15.37028916      15.38905208      15.40781213      15.42811431      15.45173343      15.47851627      15.50080025      15.51777754      15.52763986
        15.14544001      15.14387993      15.14130822      15.13822578      15.13449767      15.13032226      15.12657619      15.12301972      15.11985768      15.11621513      15.11221466      15.10790638      15.10247330      15.09630099      15.09025965      15.08492202      15.08101475      15.07909453      15.07906475      15.08047584
        15.08297943      15.08705710      15.09270590      15.09857464      15.10507028      15.11127866      15.11880751      15.12933839      15.14033998      15.15275593      15.16610524      15.18240335      15.20168883      15.22518243      15.25281400      15.28390577      15.31573747      15.34889262      15.37911177      15.40671311
        15.43213500      15.45048451      15.45759168      15.45534742      15.44781724      15.43373426      15.41562024      15.39311405      15.36771149      15.34298522      15.31942695      15.29883041      15.28031815      15.26303610      15.24813251      15.23531537      15.22541482      15.21855448      15.21407103      15.21192144
        15.21053855      15.20833834      15.20483727      15.20004443      15.19502501      15.18882226      15.18165339      15.17498149      15.16913467      15.16592711      15.16656080      15.17175464      15.18368360      15.20186169      15.22105686      15.23799186      15.25257455      15.26444200      15.27510610      15.28773484
        15.30280595      15.31854473      15.33155946      15.34407089      15.35912495      15.37720251      15.39687099      15.41453702      15.43031366      15.44812375      15.46937610      15.49223335      15.51539830      15.53829314      15.56273784      15.58763938      15.60877012      15.62394228      15.63526642      15.64016093
        15.15989695      15.15847767      15.15633104      15.15416433      15.15247166      15.15069728      15.14908439      15.14694577      15.14420377      15.14052122      15.13631395      15.13135290      15.12523106      15.11775686      15.11086918      15.10564514      15.10337313      15.10475643      15.10870983      15.11371480
        15.11944420      15.12588284      15.13277160      15.14084208      15.14985911      15.15935254      15.17069747      15.18322982      15.19719117      15.21507149      15.23887206      15.26839840      15.30248854      15.33998917      15.37851637      15.41689731      15.45171581      15.48178624      15.50746952      15.53098526
        15.54757411      15.55687138      15.55600738      15.54824718      15.53464369      15.51329597      15.48622055      15.45650687      15.42527185      15.39531859      15.36694386      15.34363912      15.32395589      15.30621569      15.29156168      15.28025491      15.27141729      15.26390592      15.25789036      15.25231862
        15.24690568      15.24026331      15.23321899      15.22584604      15.21857660      15.21169320      15.20546223      15.20094862      15.19913809      15.20206467      15.21122922      15.22762441      15.25101435      15.27703525      15.29896229      15.31631143      15.33254363      15.35033779      15.37252087      15.40053159
        15.42800034      15.45210713      15.47667076      15.50082793      15.52286183      15.54384526      15.56140964      15.57051644      15.58155488      15.60040107      15.62253271      15.64392271      15.66644921      15.68914076      15.71005274      15.72509277      15.73309260      15.73787279      15.74105083      15.74260710
        15.17831006      15.17696664      15.17555727      15.17479489      15.17521578      15.17564180      15.17515641      15.17308055      15.17056112      15.16731756      15.16294504      15.15742605      15.15111763      15.14371425      15.13781176      15.13595360      15.13995215      15.14873499      15.15927298      15.16853352
        15.17778225      15.18789299      15.19982781      15.21565983      15.23194160      15.24721671      15.26274334      15.27983866      15.30199958      15.33186212      15.36863808      15.40938276      15.45146926      15.49059668      15.52577833      15.55660106      15.58363958      15.60534271      15.62544812      15.64011344
        15.64617698      15.64780496      15.64340896      15.63137592      15.61099122      15.58191383      15.54803541      15.51378923      15.47940607      15.44726015      15.41692384      15.39157033      15.37159400      15.35500654      15.34084605      15.32798824      15.31640047      15.30559021      15.29527073      15.28474547
        15.27461369      15.26517314      15.25652561      15.24899334      15.24228172      15.23732377      15.23541364      15.23761474      15.24609812      15.25985393      15.28123334      15.30959196      15.34079770      15.36921383      15.39343796      15.41889746      15.44952241      15.48579132      15.53039817      15.57892895
        15.62366937      15.66103032      15.69601024      15.72814147      15.74788317      15.75574430      15.75709065      15.75352877      15.75327873      15.76136994      15.77414363      15.78948971      15.80204196      15.81196264      15.81881275      15.82257247      15.82371603      15.82406296      15.82316067      15.82263636
        15.20396698      15.20300833      15.20173027      15.20183830      15.20320350      15.20421969      15.20415828      15.20362505      15.20280438      15.20139195      15.19873099      15.19506243      15.19116117      15.18825696      15.19082365      15.19970857      15.21354422      15.23136303      15.24918332      15.26644535
        15.28324737      15.30646608      15.33221466      15.35430082      15.37224079      15.38926988      15.40986316      15.43501405      15.46264551      15.49536064      15.53172445      15.56788619      15.60046635      15.63006718      15.65812190      15.68222618      15.70264063      15.71865574      15.72992948      15.73573379
        15.73607526      15.73174385      15.72125275      15.70275164      15.67562855      15.64286090      15.60781044      15.57221987      15.53694010      15.50454033      15.47527343      15.44981124      15.42890825      15.40992628      15.39282251      15.37543065      15.35767663      15.34220076      15.32716781      15.31325032
        15.30070765      15.29000602      15.28160612      15.27582732      15.27327861      15.27485729      15.28121497      15.29528506      15.31632307      15.34364809      15.38241673      15.42646213      15.46879516      15.51122113      15.55478280      15.60403168      15.66100135      15.72637795      15.78725817      15.84344962
        15.88870272      15.92117546      15.94360014      15.95563501      15.95629571      15.94554956      15.92969036      15.91586352      15.90597802      15.90259735      15.90378469      15.90553186      15.90478436      15.90143284      15.89637299      15.89273301      15.89115298      15.89106060      15.88944942      15.88791644
        15.24067062      15.23972229      15.23910157      15.23959556      15.24049573      15.24200062      15.24542285      15.24952696      15.25277116      15.25532905      15.25740804      15.26108623      15.26866351      15.28318456      15.30358792      15.32860141      15.35890610      15.39211040      15.42178129      15.45543594
        15.48769082      15.51456276      15.53068311      15.53950619      15.54854096      15.56123703      15.58092682      15.60573381      15.62920665      15.65286091      15.67880414      15.70444487      15.73093430      15.75837510      15.78566506      15.80561852      15.81800161      15.82471131      15.82663790      15.82654731
        15.82087856      15.80759303      15.78799351      15.76253661      15.73224964      15.69876160      15.66546463      15.63345113      15.60189816      15.57147657      15.54272009      15.51628012      15.49252366      15.46944800      15.44594264      15.42283496      15.39987377      15.37929169      15.36132336      15.34548586
        15.33236945      15.32199548      15.31575358      15.31491422      15.31995371      15.33239225      15.35380242      15.38600967      15.42586514      15.47816946      15.54573160      15.61682318      15.68745820      15.76117501      15.82916502      15.89514681      15.96562301      16.03528121      16.08412530      16.11973739
        16.14135750      16.14933541      16.14756382      16.13312318      16.11226739      16.09060609      16.06674388      16.04538316      16.02858833      16.01554529      16.00414716      15.99272532      15.98313153      15.97456190      15.96701649      15.96057126      15.95550841      15.95113984      15.94808736      15.94652039
        15.28656302      15.28769938      15.29062224      15.29461406      15.30062327      15.30718874      15.31496851      15.32333163      15.33455264      15.34814517      15.36566470      15.39090801      15.42540451      15.46961111      15.51914304      15.57066115      15.62122832      15.67062206      15.71166072      15.73201144
        15.73995765      15.73816652      15.72774559      15.71942792      15.71545602      15.71727612      15.73066088      15.75165711      15.77209211      15.79052556      15.81069945      15.83560463      15.86352756      15.89144592      15.91417199      15.92677502      15.93076151      15.92921544      15.92227506      15.91087294
        15.89462099      15.87292153      15.84946788      15.82315350      15.79505321      15.76556373      15.73622860      15.70909000      15.68079333      15.65035329      15.61721508      15.58537519      15.55675425      15.52964332      15.50209607      15.47359958      15.44711623      15.42388735      15.40463709      15.38927518
        15.37765181      15.37075598      15.36997622      15.37766125      15.39583417      15.42643287      15.46947765      15.52420735      15.59513817      15.68125903      15.78170670      15.87665872      15.96317695      16.05022957      16.12377111      16.18826224      16.24746556      16.29200283      16.31332045      16.31990715
        16.31674018      16.30394252      16.28295981      16.25607141      16.22556412      16.19628824      16.16929671      16.14427537      16.12220566      16.10211811      16.08342204      16.06920084      16.05749631      16.04649755      16.03632109      16.02525142      16.01472540      16.00501500      15.99838927      15.99475703
        15.35593164      15.36342764      15.37223782      15.38092979      15.39306191      15.40537107      15.42011290      15.44044114      15.46868926      15.50285470      15.55062643      15.60683972      15.67527556      15.75693351      15.83673171      15.90632533      15.95853754      15.98896331      15.99804891      15.97944242
        15.94943630      15.92303084      15.89844566      15.87843709      15.86310190      15.85805069      15.86915226      15.88806686      15.90840107      15.92951561      15.95325565      15.97985650      16.00285702      16.02126315      16.03197587      16.03319718      16.02726299      16.01603072      16.00016284      15.97926907
        15.95714307      15.93461818      15.91306210      15.89152189      15.86917082      15.84498332      15.81968381      15.79317515      15.76164482      15.72594248      15.68741390      15.65026035      15.61661065      15.58454147      15.55528463      15.52653366      15.50014265      15.47922930      15.46353631      15.45290577
        15.44684802      15.44735280      15.45603996      15.47687680      15.51233421      15.56363024      15.63068300      15.71590231      15.81872611      15.93092068      16.04044011      16.13905555      16.22743496      16.30648645      16.36723556      16.41342386      16.44552717      16.46017665      16.45892323      16.44699118
        16.42774171      16.40432004      16.37611930      16.34480345      16.31332790      16.28078512      16.24979356      16.22203198      16.19768732      16.17598235      16.15696062      16.14116856      16.12595284      16.10954311      16.09265262      16.07601959      16.06051189      16.04777891      16.03830899      16.03288944
        15.47509758      15.48054121      15.48882170      15.50115761      15.51992421      15.54110870      15.56990385      15.60807373      15.65959280      15.72458249      15.80368326      15.88901582      15.98405003      16.07890541      16.15281234      16.19945111      16.21824329      16.21016134      16.18519955      16.15468666
        16.12091701      16.09008765      16.06021273      16.03425552      16.01499232      16.01058951      16.02062011      16.03735802      16.05890170      16.08356614      16.10353108      16.11797960      16.12559256      16.12644582      16.12067265      16.10982451      16.09527353      16.07759447      16.05745621      16.03647595
        16.01543289      15.99448596      15.97497586      15.95618282      15.93641137      15.91385480      15.88810289      15.85886117      15.82509888      15.78641181      15.74463088      15.70457008      15.66891125      15.63714254      15.60966268      15.58607350      15.56693875      15.55438727      15.54870398      15.54786185
        15.55324755      15.56717098      15.59285109      15.63290726      15.68480890      15.75797156      15.85379222      15.97157186      16.09387417      16.20616965      16.30483325      16.39547524      16.46536012      16.51428508      16.54672772      16.56502989      16.57039602      16.56354761      16.54911530      16.52946560
        16.50509229      16.47890414      16.44977444      16.41784210      16.38562977      16.35237979      16.31954416      16.28994053      16.26407584      16.23978440      16.21686171      16.19496898      16.17443166      16.15344820      16.13214509      16.11253127      16.09566502      16.08277225      16.07397105      16.06921908
        15.63816465      15.63904513      15.64714345      15.67161360      15.70477012      15.74158517      15.78970648      15.84601469      15.91491901      15.99874132      16.09157867      16.18593207      16.27210853      16.33463879      16.36672916      16.37467001      16.36563933      16.34580899      16.32137667      16.29841336
        16.27399979      16.24965947      16.22620547      16.20688567      16.19328849      16.18894722      16.19158450      16.19942630      16.21089564      16.22197760      16.22467645      16.21988813      16.21075706      16.19771287      16.18061618      16.16215674      16.14326516      16.12356138      16.10249156      16.08200390
        16.06300612      16.04309114      16.02291813      16.00344765      15.98297705      15.96004378      15.93433895      15.90534771      15.87281120      15.83602637      15.79558334      15.75693608      15.72371305      15.69694868      15.67707916      15.66288917      15.65379710      15.65065123      15.65728244      15.67253441
        15.69803504      15.73486234      15.78408551      15.84560320      15.92099894      16.02125231      16.14098605      16.26583027      16.37759490      16.46960510      16.54402425      16.59662888      16.62451297      16.64040116      16.64688877      16.64623086      16.63828149      16.62355720      16.60402024      16.58327495
        16.55945416      16.53351999      16.50425971      16.47240708      16.43967286      16.40507669      16.37140413      16.33958158      16.31044078      16.28289906      16.25548824      16.22914489      16.20544477      16.18368044      16.16312132      16.14428242      16.12862388      16.11791446      16.11152272      16.10833179
        15.85846660      15.86768348      15.88801400      15.92220287      15.96651968      16.01550052      16.06999017      16.12965649      16.20096263      16.27831291      16.35516081      16.42021708      16.46621056      16.49003626      16.49542958      16.48909423      16.47874993      16.46516653      16.44830888      16.43239195
        16.41538186      16.40046732      16.38529237      16.36983296      16.35566872      16.34363772      16.33425234      16.32639004      16.31988162      16.31189231      16.30040960      16.28491403      16.26684332      16.24661560      16.22566458      16.20498255      16.18445421      16.16380077      16.14240139      16.12098560
        16.10024058      16.08024076      16.06057709      16.04086618      16.02050756      15.99797218      15.97354584      15.94693138      15.91833362      15.88721425      15.85190043      15.81783050      15.79033174      15.77133589      15.76055653      15.75787769      15.76275334      15.77572844      15.79773743      15.82886820
        15.87168353      15.92904444      15.99877108      16.08146821      16.18061516      16.29262037      16.40653829      16.50764740      16.58619444      16.64164173      16.67619054      16.69187264      16.69639384      16.69663623      16.69226804      16.68472631      16.67313741      16.65818502      16.63951606      16.61876045
        16.59529905      16.56938765      16.53980547      16.50733890      16.47434187      16.43869236      16.40266476      16.36903351      16.33763844      16.30807163      16.28002395      16.25392692      16.23034218      16.20927991      16.19085210      16.17592526      16.16409729      16.15570847      16.15026241      16.14689571
        16.14170206      16.15622704      16.18450177      16.21855350      16.25620486      16.29347308      16.33521453      16.38359658      16.44184936      16.49863231      16.54180066      16.56998394      16.58687328      16.59376558      16.59283402      16.58526993      16.57475318      16.56220503      16.54695862      16.53292457
        16.51928464      16.50614506      16.49044851      16.47306349      16.45380839      16.43332318      16.41506360      16.39641136      16.37924168      16.36248581      16.34472814      16.32614208      16.30656264      16.28474750      16.26223517      16.24086761      16.22063098      16.20087285      16.18028913      16.15953874
        16.13937430      16.11939168      16.10040979      16.08143715      16.06196767      16.04156981      16.02027155      15.99741022      15.97279951      15.94760823      15.92027912      15.89375930      15.87370471      15.86476136      15.86820499      15.87984059      15.89838715      15.92438042      15.95772088      15.99818672
        16.05081803      16.11907494      16.20189230      16.29660482      16.39857674      16.49798875      16.58295661      16.64653053      16.68620749      16.70809298      16.71953296      16.72352350      16.72311955      16.71982773      16.71384906      16.70600089      16.69472178      16.67984067      16.66163773      16.64118468
        16.61771563      16.59152971      16.56234038      16.53076218      16.49763825      16.46187539      16.42547601      16.39079681      16.35942785      16.33045234      16.30319639      16.27873521      16.25757791      16.23940884      16.22360963      16.21055888      16.19985018      16.19088652      16.18440813      16.18039127
        16.44153869      16.45195900      16.46537602      16.48190567      16.50106101      16.52316030      16.55176102      16.58560587      16.61826939      16.64540627      16.66100139      16.66805196      16.66941017      16.66513345      16.65594690      16.64390515      16.62933608      16.61341609      16.59683220      16.58175970
        16.56761349      16.55294378      16.53648107      16.51888491      16.49942226      16.47792257      16.45584392      16.43298273      16.41175684      16.39229796      16.37292626      16.35319450      16.33372406      16.31349038      16.29237023      16.27218662      16.25340821      16.23514464      16.21624520      16.19709354