# File generated by Flopy version 3.7.0 on 07/16/2024 at 15:16:14.
BEGIN options
END options

BEGIN dimensions
  MAXBOUND  5
END dimensions

BEGIN period  1
  1 170 0.00000000E+00
  1 1120 0.00000000E+00
  1 1180 0.00000000E+00
  1 3120 -2.50000000E-05
  1 3160 -2.50000000E-04
END period  1

