# File generated by Flopy version 3.7.0 on 06/13/2024 at 10:34:43.
BEGIN options
END options

BEGIN dimensions
  MAXBOUND  5
END dimensions

BEGIN period  1
  1 1138 -9.72222222E-03
  1 1223 -5.00000000E-03
  1 3240 -2.50000000E-02
  1 3345 -5.55555556E-03
  1 4389 -4.16666667E-03
END period  1

