# File generated by Flopy version 3.7.0 on 07/29/2024 at 11:44:20.
BEGIN options
  PRINT_OPTION  summary
  COMPLEXITY  complex
END options

BEGIN linear
  LINEAR_ACCELERATION  bicgstab
END linear

