# File generated by Flopy version 3.6.0 on 07/18/2024 at 15:43:23.
BEGIN options
END options

BEGIN griddata
  icelltype
    CONSTANT  0
  k
    INTERNAL  FACTOR  1.0
    1.47513104E-05  1.46011676E-05  1.41852588E-05  1.42432687E-05  1.50852646E-05  1.63932477E-05  1.80822851E-05  1.92806684E-05  2.02856053E-05  2.14801348E-05  2.31268332E-05  3.04961381E-05  4.03422937E-05  5.77385349E-05  7.43735653E-05  9.76521387E-05  1.31888992E-04  1.76961120E-04  2.47846472E-04  3.28700010E-04
    4.31208030E-04  5.22958141E-04  6.44390596E-04  8.49029656E-04       0.00118254       0.00153726       0.00179082       0.00193918       0.00202544       0.00217983       0.00216711       0.00224429       0.00207456       0.00195623       0.00170111       0.00141480       0.00117195  9.40214469E-04  6.88976352E-04  4.91812874E-04
    3.63428700E-04  2.82369832E-04  2.29157056E-04  2.03122736E-04  1.85629319E-04  1.74874581E-04  1.53982776E-04  1.50595472E-04  1.46886434E-04  1.46492760E-04  1.52570495E-04  1.54857989E-04  1.41332014E-04  1.27116998E-04  1.14260532E-04  1.00240249E-04  9.26493362E-05  8.87297200E-05  8.84850056E-05  9.28745883E-05
    9.76675743E-05  1.02193299E-04  1.03865595E-04  1.18475717E-04  1.27865419E-04  1.34427022E-04  1.42714750E-04  1.48856307E-04  1.34954057E-04  1.13592784E-04  9.07781126E-05  7.24294909E-05  5.86892394E-05  5.07716160E-05  4.40044489E-05  3.68521964E-05  3.18469533E-05  2.73748886E-05  2.61809659E-05  2.59365459E-05
    2.55353308E-05  2.40797183E-05  2.25823914E-05  2.35745538E-05  2.37314305E-05  2.25805237E-05  2.21225365E-05  2.08457036E-05  1.83713683E-05  1.78990542E-05  1.89019186E-05  2.14262932E-05  2.35420544E-05  2.72085423E-05  3.45473253E-05  3.76623130E-05  4.56313137E-05  5.56906297E-05  6.46394458E-05  6.61304152E-05
    1.82070980E-05  1.81579171E-05  1.75976660E-05  1.73829537E-05  1.98846470E-05  2.14675850E-05  2.29446483E-05  2.57180895E-05  2.90695582E-05  3.39546799E-05  4.16676745E-05  5.91558432E-05  8.12000618E-05  1.08725962E-04  1.33841877E-04  1.72662605E-04  2.22861145E-04  2.91203893E-04  3.80081225E-04  4.91749609E-04
    5.79977749E-04  7.15659312E-04  8.73023014E-04       0.00105884       0.00133633       0.00151854       0.00167913       0.00187729       0.00202462       0.00232944       0.00231273       0.00224385       0.00214574       0.00194366       0.00164617       0.00140219       0.00117664  9.26464028E-04  6.51012876E-04  4.77716647E-04
    3.54888361E-04  2.93693004E-04  2.57765156E-04  2.30349287E-04  2.04429504E-04  1.97420938E-04  1.84706744E-04  1.96956788E-04  1.89306891E-04  1.84486885E-04  1.77473824E-04  1.57622374E-04  1.36962422E-04  1.26789390E-04  1.21893254E-04  1.22317956E-04  1.26815740E-04  1.30543237E-04  1.34246872E-04  1.51532285E-04
    1.73863030E-04  1.87905759E-04  1.82198052E-04  1.78596815E-04  1.76633373E-04  1.81413026E-04  1.82141861E-04  1.74553387E-04  1.41910339E-04  1.09557242E-04  9.23147869E-05  7.92095349E-05  6.86381687E-05  5.48340998E-05  4.60598361E-05  3.83154703E-05  3.25535214E-05  2.99480426E-05  2.98023659E-05  2.94047383E-05
    2.80126583E-05  2.63471178E-05  2.55769930E-05  2.43845854E-05  2.31636537E-05  2.04555728E-05  2.02929283E-05  1.78170643E-05  1.67607798E-05  1.86346387E-05  2.00507741E-05  2.32865656E-05  2.74471614E-05  3.02859045E-05  3.44301473E-05  3.98080350E-05  4.38524158E-05  4.65053877E-05  5.01063658E-05  4.89084575E-05
    1.93169979E-05  2.06532620E-05  2.27860771E-05  2.60165282E-05  2.79378663E-05  2.96922656E-05  3.29146181E-05  3.70192821E-05  4.33492604E-05  5.71657745E-05  7.99565877E-05  1.13547879E-04  1.44027609E-04  1.83639138E-04  2.31985529E-04  2.95902711E-04  3.82072562E-04  4.78089223E-04  5.81856676E-04  6.92430972E-04
    7.66975000E-04  8.80801868E-04       0.00102321       0.00119389       0.00138488       0.00145793       0.00168372       0.00199047       0.00238637       0.00262464       0.00248296       0.00221250       0.00189977       0.00173260       0.00161133       0.00146878       0.00114898  8.81950122E-04  6.30369371E-04  4.84088961E-04
    3.99666097E-04  3.50175187E-04  2.94176723E-04  2.57368663E-04  2.38660009E-04  2.16171499E-04  1.96326254E-04  1.98244058E-04  1.96395559E-04  1.82151163E-04  1.62499009E-04  1.44621364E-04  1.43095432E-04  1.47209848E-04  1.60572960E-04  1.69938942E-04  1.71920808E-04  1.77635600E-04  2.07530653E-04  2.23128763E-04
    2.27657617E-04  2.31608216E-04  2.21802806E-04  2.20075663E-04  2.37660052E-04  2.33672707E-04  2.09883240E-04  1.70449298E-04  1.29393210E-04  1.04864549E-04  8.99198408E-05  7.42532786E-05  6.61253335E-05  5.79005657E-05  5.05559917E-05  4.35142610E-05  3.77041355E-05  3.70546716E-05  3.69198574E-05  3.59615304E-05
    3.23553701E-05  2.73570258E-05  2.25117989E-05  2.10736882E-05  1.93548638E-05  1.81347923E-05  1.86839601E-05  1.89401968E-05  1.97635777E-05  2.16280096E-05  2.30298489E-05  2.67089399E-05  3.01435377E-05  3.39832179E-05  4.01053028E-05  4.18707586E-05  4.24387839E-05  4.06237049E-05  4.20248842E-05  4.31863364E-05
    2.40532486E-05  2.67196031E-05  3.08213450E-05  3.47753395E-05  3.94969222E-05  4.27519801E-05  4.76482838E-05  5.92550284E-05  7.79963070E-05  1.05999095E-04  1.30326374E-04  1.71382031E-04  2.13025565E-04  2.88861261E-04  3.63301634E-04  4.60126211E-04  5.65024490E-04  7.14956560E-04  8.33514790E-04  9.13624125E-04
    9.92878714E-04       0.00102800       0.00112543       0.00123880       0.00137538       0.00153224       0.00179040       0.00218269       0.00256348       0.00267772       0.00242446       0.00222953       0.00195149       0.00176865       0.00154291       0.00133333  9.83655000E-04  7.78962373E-04  5.98146018E-04  5.05110990E-04
    4.23143007E-04  4.03451784E-04  3.69364528E-04  3.26522799E-04  2.81662190E-04  2.47659526E-04  2.15481319E-04  2.12539902E-04  2.04403596E-04  1.98691755E-04  1.90657549E-04  1.87972053E-04  1.88985990E-04  1.91960462E-04  2.13814486E-04  2.21994890E-04  2.38174258E-04  2.55943341E-04  2.77923466E-04  2.67959178E-04
    2.66815546E-04  2.64581062E-04  2.48163473E-04  2.40799690E-04  2.33825819E-04  2.10484652E-04  1.74855774E-04  1.44386038E-04  1.11073841E-04  9.32707574E-05  7.73745614E-05  6.55586755E-05  6.24455390E-05  5.84153844E-05  5.77725593E-05  5.25715878E-05  4.95704877E-05  4.77728553E-05  4.38061053E-05  3.80505630E-05
    3.12991518E-05  2.60913237E-05  2.24800081E-05  2.06845158E-05  2.07835194E-05  1.96085800E-05  2.11637393E-05  2.31040798E-05  2.48065206E-05  2.72823088E-05  2.98375746E-05  3.20306742E-05  3.50430025E-05  3.86936180E-05  3.90797710E-05  3.89433410E-05  3.88701667E-05  4.00267043E-05  4.58897497E-05  5.03824309E-05
    3.22638715E-05  3.44598313E-05  3.82990128E-05  4.43227177E-05  4.99512166E-05  5.58527317E-05  6.74723713E-05  9.10709258E-05  1.19268186E-04  1.55524449E-04  1.93728528E-04  2.62847019E-04  3.32868474E-04  4.58252292E-04  6.00276208E-04  7.72589038E-04  9.85760140E-04       0.00110611       0.00119318       0.00117725
         0.00116164       0.00112270       0.00113654       0.00127341       0.00137245       0.00154775       0.00194731       0.00227072       0.00230188       0.00222569       0.00195542       0.00180848       0.00174727       0.00156296       0.00131238       0.00112724  8.71788896E-04  7.28195373E-04  6.26678381E-04  5.51001173E-04
    5.01045704E-04  4.93306490E-04  4.52851685E-04  3.80202457E-04  3.09657045E-04  2.67361082E-04  2.44522148E-04  2.64023096E-04  2.67643771E-04  2.71141168E-04  2.67810823E-04  2.60114961E-04  2.68692252E-04  2.78802057E-04  3.09246443E-04  3.49500547E-04  3.67512645E-04  3.61934692E-04  3.38433252E-04  3.10228304E-04
    3.00167389E-04  2.83602485E-04  2.47348103E-04  2.14805720E-04  1.86581863E-04  1.53000374E-04  1.27750932E-04  1.06954824E-04  8.69492916E-05  7.35304180E-05  6.70902107E-05  6.55819634E-05  6.97181224E-05  7.08964960E-05  7.13972351E-05  6.61351094E-05  6.10404280E-05  5.43405609E-05  4.70944157E-05  4.22389901E-05
    3.70595051E-05  3.57453930E-05  3.25216640E-05  3.10992303E-05  3.02728303E-05  3.03319207E-05  3.24038887E-05  3.52887268E-05  4.11165089E-05  4.28513825E-05  4.02844434E-05  4.05259400E-05  3.88392021E-05  4.04647135E-05  4.26517924E-05  4.33807835E-05  4.39228116E-05  4.79826796E-05  5.47282308E-05  6.01470450E-05
    4.29051063E-05  4.53823954E-05  4.86596918E-05  5.66480301E-05  7.21903007E-05  8.64895874E-05  1.06972078E-04  1.40750996E-04  1.83272007E-04  2.44960356E-04  3.09772867E-04  4.40190234E-04  5.76711302E-04  7.66817392E-04  9.82238732E-04       0.00118529       0.00136055       0.00137776       0.00132278       0.00129345
         0.00128272       0.00127035       0.00129185       0.00130875       0.00145942       0.00166657       0.00199571       0.00212230       0.00200018       0.00194797       0.00185273       0.00191824       0.00182506       0.00163905       0.00129457       0.00101960  8.32370543E-04  8.01012364E-04  7.05042013E-04  6.06473890E-04
    5.15389597E-04  4.89378983E-04  4.32924400E-04  3.78141596E-04  3.56887996E-04  3.48858991E-04  3.35782730E-04  3.71020306E-04  3.82680640E-04  3.77021084E-04  3.75295124E-04  3.73357495E-04  3.89217800E-04  4.66055744E-04  5.20148757E-04  5.30302743E-04  5.15312946E-04  4.42070485E-04  4.13931063E-04  3.91615318E-04
    3.70650944E-04  3.11337886E-04  2.37986500E-04  2.06560481E-04  1.77095684E-04  1.36984607E-04  1.12009730E-04  9.41242512E-05  8.10654004E-05  7.32896873E-05  7.07770784E-05  7.04302547E-05  7.17479168E-05  7.14509321E-05  6.87739111E-05  6.25929621E-05  5.53877518E-05  4.98346483E-05  4.55245387E-05  4.44663476E-05
    4.43066623E-05  4.16079501E-05  3.76558848E-05  3.76848496E-05  4.11314371E-05  4.25871438E-05  4.69024793E-05  4.76001539E-05  4.75285822E-05  4.75680967E-05  4.66441243E-05  4.80971079E-05  4.80547059E-05  4.75017176E-05  4.84380166E-05  4.89302390E-05  5.35673749E-05  5.59494750E-05  6.53457255E-05  7.22246670E-05
    5.28321470E-05  5.89013673E-05  7.06827842E-05  8.99466760E-05  1.11868609E-04  1.35893993E-04  1.79392624E-04  2.33949098E-04  2.85727601E-04  3.92625305E-04  5.22676109E-04  6.99782431E-04  8.73476490E-04       0.00112858       0.00134532       0.00154929       0.00165118       0.00164084       0.00150318       0.00148430
         0.00151136       0.00141412       0.00136047       0.00141875       0.00152656       0.00166763       0.00178244       0.00172104       0.00168181       0.00177080       0.00166225       0.00177637       0.00174655       0.00151700       0.00119948       0.00100790  8.82691911E-04  8.66827161E-04  7.43837482E-04  6.25412198E-04
    5.13486098E-04  4.80619368E-04  4.63168616E-04  4.26729344E-04  4.30959941E-04  4.57581749E-04  4.54911271E-04  5.05528473E-04  5.24933452E-04  5.44868186E-04  5.24229965E-04  5.42189547E-04  6.09676742E-04  6.68060409E-04  6.99518492E-04  6.54635165E-04  6.14551088E-04  5.91851328E-04  5.82519114E-04  5.05238706E-04
    4.03186573E-04  3.21441009E-04  2.62961518E-04  2.15772932E-04  1.73476968E-04  1.40597289E-04  1.17692245E-04  1.02667403E-04  8.39169317E-05  7.53583196E-05  6.89641835E-05  6.59608575E-05  6.85384746E-05  6.33224255E-05  5.49813393E-05  4.90101190E-05  4.77358655E-05  4.59953028E-05  4.44854555E-05  4.61228640E-05
    4.45929195E-05  4.31422444E-05  4.07861691E-05  4.44794857E-05  4.97659751E-05  4.90978383E-05  4.83866424E-05  4.74069746E-05  4.79705253E-05  5.49325372E-05  5.89193990E-05  6.49903661E-05  6.55018692E-05  6.58453775E-05  6.46032149E-05  6.43126766E-05  6.83549931E-05  7.23337070E-05  8.33090756E-05  9.27963381E-05
    6.89823386E-05  8.98814452E-05  1.16056852E-04  1.53523226E-04  1.93979551E-04  2.42553883E-04  3.17158662E-04  3.97355513E-04  4.75187080E-04  6.22441835E-04  8.09449421E-04       0.00106162       0.00134017       0.00163166       0.00182036       0.00203934       0.00206295       0.00198087       0.00181334       0.00179949
         0.00182649       0.00158859       0.00158481       0.00159050       0.00160765       0.00163410       0.00153079       0.00142794       0.00151229       0.00156195       0.00154066       0.00151319       0.00131543       0.00116344       0.00103880  9.85800424E-04  9.05840205E-04  9.08546815E-04  7.64786697E-04  6.53796707E-04
    5.62984727E-04  5.57941581E-04  5.41308145E-04  5.71618706E-04  6.39354582E-04  7.24891349E-04  7.23600376E-04  8.41179934E-04  8.28687906E-04  7.72589696E-04  7.57246192E-04  7.92215071E-04  7.78838318E-04  8.18966507E-04  8.14276649E-04  7.90223668E-04  7.36359991E-04  6.99500853E-04  6.34479694E-04  5.08516453E-04
    4.04399161E-04  3.24167749E-04  2.68901517E-04  2.29442460E-04  1.98430467E-04  1.69514137E-04  1.43404166E-04  1.29495484E-04  1.09536132E-04  9.65034375E-05  8.32766868E-05  7.10956532E-05  6.22640096E-05  5.60552475E-05  5.05552112E-05  4.58736074E-05  4.52573233E-05  4.82887615E-05  4.82784437E-05  4.56720745E-05
    4.41102423E-05  4.40621041E-05  4.40432910E-05  4.75861299E-05  5.08880248E-05  5.01251081E-05  5.12324806E-05  4.91476677E-05  5.44696450E-05  6.30067365E-05  6.58675588E-05  7.01792707E-05  6.97629598E-05  6.81728258E-05  6.76084692E-05  6.97965720E-05  8.15955732E-05  9.06514962E-05  1.02591197E-04  1.17040726E-04
    9.83221297E-05  1.41338126E-04  1.96075981E-04  2.65024843E-04  3.63814820E-04  5.06335809E-04  6.29688015E-04  7.52652955E-04  9.03094858E-04       0.00112691       0.00137299       0.00175312       0.00187150       0.00219162       0.00236098       0.00226731       0.00221510       0.00210523       0.00202606       0.00191576
         0.00179993       0.00176426       0.00180678       0.00177473       0.00174993       0.00157273       0.00138675       0.00126787       0.00129480       0.00135048       0.00128628       0.00118653  9.88755084E-04  8.67492817E-04  8.11783084E-04  8.39689461E-04  9.03602735E-04  9.09854931E-04  8.09659495E-04  7.76490629E-04
    7.28969536E-04  7.58690798E-04  7.57530738E-04  8.63205125E-04       0.00101258       0.00118533       0.00118703       0.00121163       0.00116815       0.00109513       0.00100559  9.52665151E-04  9.46449547E-04  9.26086314E-04  8.72957927E-04  8.03361949E-04  7.50327690E-04  6.88662993E-04  6.02381070E-04  5.27094832E-04
    4.48030212E-04  3.89067934E-04  3.28737720E-04  2.82003656E-04  2.27972104E-04  1.93008693E-04  1.70672451E-04  1.56460666E-04  1.31354552E-04  1.06846127E-04  8.90204937E-05  7.51729182E-05  6.58977496E-05  6.06790955E-05  5.32059114E-05  4.99335578E-05  5.00885678E-05  5.11962223E-05  4.65076614E-05  4.30983326E-05
    4.15984770E-05  4.36220912E-05  4.51606930E-05  4.70571654E-05  4.54944584E-05  4.41699468E-05  4.86490090E-05  4.97624807E-05  5.48499157E-05  6.18814279E-05  6.38693186E-05  6.81346871E-05  6.79075003E-05  7.08042222E-05  7.59016580E-05  8.23813601E-05  9.09387835E-05  1.04533860E-04  1.18127423E-04  1.25452210E-04
    1.53371431E-04  2.19333154E-04  3.16035250E-04  4.44991148E-04  6.47687942E-04  9.00145516E-04       0.00103607       0.00120969       0.00141872       0.00176583       0.00202029       0.00216058       0.00224521       0.00232245       0.00217573       0.00204256       0.00206897       0.00212553       0.00204363       0.00183952
         0.00176252       0.00174506       0.00175088       0.00165842       0.00146458       0.00126939       0.00120324       0.00110614       0.00110391       0.00112481       0.00101155  9.19875847E-04  8.30290110E-04  7.89898513E-04  7.82840661E-04  9.05814106E-04  9.58132721E-04  9.83456433E-04  9.20544124E-04  9.50034837E-04
    9.61525494E-04       0.00101111       0.00112360       0.00130596       0.00143682       0.00155705       0.00147210       0.00142443       0.00121688       0.00102348  9.33727087E-04  9.06281608E-04  9.02527876E-04  8.63236737E-04  7.89971568E-04  7.58213834E-04  7.46323043E-04  7.02715341E-04  6.87653317E-04  5.90062890E-04
    4.92401628E-04  4.41324278E-04  3.20741868E-04  2.48664067E-04  1.90585099E-04  1.64634114E-04  1.41523199E-04  1.23793957E-04  1.04565657E-04  9.09249033E-05  8.74908173E-05  8.30580899E-05  7.60814170E-05  6.60245090E-05  5.84164172E-05  5.49370806E-05  5.53334175E-05  5.25864666E-05  4.75470177E-05  4.18989853E-05
    3.59889781E-05  3.69622032E-05  3.96912841E-05  4.19743479E-05  4.18919520E-05  4.00961627E-05  4.25988504E-05  4.50151901E-05  4.91789122E-05  5.52195203E-05  5.91113441E-05  6.32002142E-05  6.49668198E-05  7.17067388E-05  7.91164782E-05  8.49103555E-05  9.25850605E-05  1.01056570E-04  1.08076990E-04  1.13942787E-04
    2.70388651E-04  3.83375337E-04  5.47207660E-04  8.07169883E-04       0.00117640       0.00141344       0.00162245       0.00192579       0.00209279       0.00223380       0.00225828       0.00233176       0.00226834       0.00219828       0.00206691       0.00211966       0.00212845       0.00209804       0.00194021       0.00178088
         0.00165520       0.00156922       0.00155553       0.00144305       0.00132281       0.00116517       0.00113190       0.00101477  9.38818963E-04  8.94205104E-04  8.21506491E-04  8.40700141E-04  8.33032882E-04  8.71553572E-04       0.00101549       0.00124154       0.00134143       0.00136921       0.00131570       0.00129696
         0.00126381       0.00132587       0.00137170       0.00146033       0.00149358       0.00156316       0.00141851       0.00134020       0.00116032       0.00102054  9.10722990E-04  8.36761019E-04  8.12011682E-04  7.64474641E-04  7.35001119E-04  7.27705769E-04  7.16869315E-04  6.89900977E-04  6.32565574E-04  5.59923048E-04
    4.63615673E-04  3.60129918E-04  2.62471872E-04  2.04769239E-04  1.63054934E-04  1.32277892E-04  1.11794097E-04  9.58347302E-05  8.26863467E-05  7.95137248E-05  8.20881213E-05  7.96093423E-05  7.63654866E-05  6.75592159E-05  5.91551748E-05  5.42261910E-05  5.19836183E-05  4.98400043E-05  4.46790148E-05  3.90096001E-05
    3.85146219E-05  3.92405738E-05  4.01515030E-05  4.08095444E-05  4.02214240E-05  3.90149881E-05  4.20877433E-05  4.31343843E-05  4.44989916E-05  4.78463884E-05  4.93458549E-05  5.54640279E-05  6.10803180E-05  6.33723481E-05  6.71713991E-05  7.68349121E-05  8.96249414E-05  9.44340781E-05  1.07286243E-04  1.14953156E-04
    4.52588216E-04  6.83858676E-04       0.00109415       0.00158552       0.00206459       0.00244418       0.00252020       0.00268528       0.00253022       0.00233069       0.00215282       0.00217621       0.00221144       0.00214359       0.00205458       0.00210338       0.00205674       0.00195829       0.00177677       0.00158767
         0.00142176       0.00132915       0.00132610       0.00126259       0.00115008       0.00107194       0.00102175  9.35207241E-04  8.60181879E-04  8.53859972E-04  8.60321038E-04  9.34815435E-04  9.95529570E-04       0.00116794       0.00141658       0.00167182       0.00158563       0.00160726       0.00145588       0.00136464
         0.00131030       0.00138065       0.00143876       0.00150933       0.00150578       0.00152521       0.00141161       0.00141867       0.00126384       0.00107645  9.61652271E-04  8.62674893E-04  8.05820252E-04  7.51936910E-04  6.83939344E-04  6.39781542E-04  6.04353491E-04  5.51498915E-04  4.90722093E-04  4.03217726E-04
    3.17040415E-04  2.57430385E-04  2.03507481E-04  1.77872337E-04  1.41321825E-04  1.23400270E-04  1.05085504E-04  9.64374566E-05  8.24797220E-05  7.86177084E-05  8.07517300E-05  7.56678075E-05  7.07787540E-05  6.00823447E-05  5.22934406E-05  4.70808081E-05  4.67298006E-05  4.64224295E-05  3.96823738E-05  3.54345337E-05
    3.52920593E-05  3.74883217E-05  3.69959844E-05  3.62621306E-05  3.48297648E-05  3.54845884E-05  3.87804012E-05  3.88977382E-05  4.02711184E-05  4.30214835E-05  4.67668090E-05  5.08788359E-05  5.43376219E-05  6.01046413E-05  6.72981466E-05  7.71506661E-05  8.70238448E-05  9.20267600E-05  1.02665931E-04  1.07427509E-04
    8.34262683E-04       0.00129100       0.00190384       0.00249271       0.00275140       0.00289396       0.00292644       0.00285084       0.00249703       0.00227916       0.00210443       0.00208623       0.00192290       0.00192487       0.00184175       0.00173786       0.00162954       0.00149428       0.00127787       0.00108670
         0.00102848       0.00101654       0.00108670       0.00106835  9.82161405E-04  9.59652102E-04  9.41130116E-04  9.09788861E-04  8.84855383E-04  9.02811662E-04  9.27159822E-04       0.00103734       0.00116658       0.00142881       0.00164278       0.00178003       0.00167702       0.00165624       0.00158011       0.00141885
         0.00124050       0.00127674       0.00134795       0.00141258       0.00154436       0.00172851       0.00163341       0.00157823       0.00140275       0.00118515       0.00102299  8.69204249E-04  7.58553003E-04  6.83511075E-04  6.02479321E-04  5.87701248E-04  5.08976768E-04  4.37996505E-04  3.67523800E-04  3.12015607E-04
    2.50458648E-04  2.11740361E-04  1.80406779E-04  1.73029523E-04  1.46579097E-04  1.25011365E-04  1.03943266E-04  9.15005255E-05  8.78534870E-05  8.33539617E-05  8.18070069E-05  7.58582817E-05  6.85340128E-05  6.15363628E-05  5.60266753E-05  5.36441069E-05  4.91014937E-05  4.41262831E-05  3.90531609E-05  3.62970558E-05
    3.69766047E-05  3.66689187E-05  3.52856679E-05  3.47883295E-05  3.65588578E-05  3.98066734E-05  4.37440552E-05  4.30255385E-05  4.56396685E-05  5.30381042E-05  5.82429914E-05  6.28371694E-05  6.30116050E-05  7.02754949E-05  7.83126756E-05  8.07142316E-05  8.71417022E-05  8.98533906E-05  1.01165197E-04  1.08385164E-04
         0.00117910       0.00171968       0.00225176       0.00267557       0.00297800       0.00305850       0.00277744       0.00268261       0.00251749       0.00231670       0.00208256       0.00190548       0.00178743       0.00169983       0.00150617       0.00134263       0.00115426  9.65049134E-04  8.25460082E-04  7.94634443E-04
    7.83914501E-04  7.90030394E-04  8.26154549E-04  8.64493722E-04  8.99430419E-04  9.07750075E-04  9.43456067E-04  9.16126620E-04  8.87386044E-04  9.30502745E-04  9.33383445E-04       0.00107689       0.00133512       0.00160868       0.00171483       0.00181201       0.00169597       0.00161205       0.00141968       0.00126284
         0.00112592       0.00116652       0.00136289       0.00161959       0.00173683       0.00175698       0.00162294       0.00154943       0.00130816       0.00111649  9.97065833E-04  8.40798497E-04  7.09753259E-04  6.00980003E-04  5.29570465E-04  4.61812758E-04  3.72776533E-04  3.24067375E-04  2.87622148E-04  2.48632386E-04
    2.13913107E-04  1.93378192E-04  1.68714199E-04  1.59970474E-04  1.42847624E-04  1.28299852E-04  1.11937684E-04  1.07046185E-04  9.67383649E-05  9.01430253E-05  8.59885146E-05  7.94832201E-05  7.46534661E-05  7.12153066E-05  6.81800245E-05  6.30330129E-05  5.88912240E-05  5.09418857E-05  4.43762551E-05  4.11404859E-05
    4.16134045E-05  4.29910412E-05  4.23157053E-05  4.23551608E-05  4.71859880E-05  5.14225028E-05  5.95260889E-05  6.03800857E-05  6.58091252E-05  7.46969919E-05  8.11995447E-05  8.98826806E-05  9.09284452E-05  9.42549909E-05  9.46274125E-05  1.00455283E-04  1.09941905E-04  1.21590063E-04  1.29660511E-04  1.39622775E-04
         0.00118152       0.00163042       0.00211974       0.00248265       0.00269209       0.00270561       0.00240494       0.00238338       0.00213871       0.00188698       0.00159940       0.00159501       0.00149095       0.00125443       0.00106189  9.71987124E-04  9.07004427E-04  8.04870913E-04  7.40867563E-04  7.07040662E-04
    6.72078715E-04  6.56137265E-04  7.29127324E-04  8.01617805E-04  8.94503779E-04  9.28553309E-04  9.25254974E-04  8.38670940E-04  8.67334966E-04  9.38354438E-04       0.00103658       0.00122069       0.00144671       0.00168438       0.00170264       0.00172684       0.00171950       0.00170269       0.00150027       0.00130815
         0.00128445       0.00142437       0.00154209       0.00166763       0.00177452       0.00181562       0.00162343       0.00139423       0.00116438       0.00100821  8.80208681E-04  7.28162645E-04  5.82279179E-04  4.92221534E-04  3.76216060E-04  3.08508602E-04  2.69148058E-04  2.58765518E-04  2.39521505E-04  2.15001384E-04
    1.97859626E-04  1.93963639E-04  1.67095870E-04  1.56147188E-04  1.45020954E-04  1.32452126E-04  1.17958625E-04  1.09933329E-04  9.93479458E-05  9.56690809E-05  9.11831838E-05  8.46791761E-05  8.20273612E-05  8.04502443E-05  8.15873233E-05  7.71378807E-05  7.21758168E-05  6.30171722E-05  5.57257013E-05  5.53870378E-05
    5.33499617E-05  5.21939956E-05  5.13732223E-05  5.65312185E-05  6.33768053E-05  6.99835738E-05  8.25038759E-05  8.72373343E-05  9.42613029E-05  1.03006324E-04  1.09167133E-04  1.23288990E-04  1.33578611E-04  1.47313742E-04  1.56148531E-04  1.59662330E-04  1.69192441E-04  1.67469215E-04  1.58562397E-04  1.47504930E-04
         0.00115910       0.00145912       0.00186184       0.00214662       0.00225960       0.00228879       0.00201258       0.00162994       0.00145506       0.00136742       0.00131906       0.00131134       0.00120018       0.00103737  9.73822379E-04  9.60704643E-04  9.44288678E-04  8.85064318E-04  8.13164733E-04  7.69650739E-04
    7.28287107E-04  7.14014314E-04  7.73096511E-04  8.01807211E-04  8.30354065E-04  8.31119963E-04  8.19511207E-04  8.26173200E-04  8.90553893E-04       0.00103832       0.00114111       0.00132465       0.00146914       0.00162401       0.00162529       0.00172975       0.00169636       0.00171400       0.00178979       0.00180838
         0.00179406       0.00180692       0.00181672       0.00181914       0.00167188       0.00154687       0.00129535       0.00115386  9.94529939E-04  9.02709167E-04  7.26740311E-04  5.62463035E-04  4.45198778E-04  3.81573668E-04  3.26678295E-04  2.81141950E-04  2.49931713E-04  2.13266170E-04  1.99408060E-04  1.94073479E-04
    1.82075224E-04  1.77513621E-04  1.61522432E-04  1.53894509E-04  1.34228166E-04  1.26586195E-04  1.15137996E-04  1.06154841E-04  9.50766782E-05  9.23337120E-05  9.31079599E-05  9.32700564E-05  9.03747436E-05  8.68345102E-05  8.36288646E-05  8.08679859E-05  7.40708434E-05  6.99565566E-05  6.36800963E-05  6.12658925E-05
    6.11713892E-05  6.41784056E-05  6.77774806E-05  7.04838008E-05  7.69799540E-05  8.52832963E-05  9.65185626E-05  1.01483480E-04  1.16093579E-04  1.34211061E-04  1.52623639E-04  1.83038356E-04  2.07718468E-04  2.11694318E-04  2.05732759E-04  2.06010986E-04  1.98509745E-04  1.73431475E-04  1.71691633E-04  1.62890148E-04
         0.00123072       0.00150029       0.00183508       0.00197257       0.00187419       0.00167939       0.00147322       0.00135383       0.00123629       0.00111100       0.00107741       0.00107598  9.91950576E-04       0.00101277  9.97870630E-04  9.74613276E-04  9.52782842E-04  8.97313045E-04  8.42543949E-04  7.95781331E-04
    8.03181553E-04  8.27113174E-04  8.37009708E-04  7.91671094E-04  7.34667854E-04  6.94733823E-04  7.01288414E-04  7.45050921E-04  8.62291627E-04       0.00107302       0.00131369       0.00153410       0.00161493       0.00176215       0.00180991       0.00181162       0.00172583       0.00194287       0.00193638       0.00191571
         0.00190854       0.00192213       0.00176327       0.00170749       0.00154827       0.00137072       0.00111389  9.64121458E-04  8.67197939E-04  7.41612425E-04  5.89200101E-04  4.62585788E-04  3.78412191E-04  3.31582509E-04  2.73773884E-04  2.28728804E-04  1.82574925E-04  1.66704782E-04  1.73456238E-04  1.81146218E-04
    1.75954780E-04  1.83017892E-04  1.70685497E-04  1.53365269E-04  1.34609026E-04  1.22505980E-04  1.05555146E-04  9.80069492E-05  8.79660257E-05  8.84691380E-05  1.00565804E-04  1.04530634E-04  1.00232985E-04  9.21971598E-05  8.38092075E-05  7.57750385E-05  7.44391547E-05  7.36111454E-05  7.04262786E-05  6.75130360E-05
    7.03100922E-05  7.69856951E-05  8.36839975E-05  8.31099649E-05  9.24098623E-05  9.59074647E-05  1.07280249E-04  1.18295926E-04  1.38338478E-04  1.71195393E-04  1.91903787E-04  2.29423832E-04  2.57627441E-04  2.61824221E-04  2.42137313E-04  2.25415242E-04  2.14779258E-04  2.04787058E-04  1.94117492E-04  1.88757504E-04
         0.00146288       0.00170377       0.00186974       0.00181936       0.00170945       0.00169272       0.00144891       0.00128015       0.00120583       0.00113256       0.00102168  9.78387961E-04  9.41685955E-04  9.50731566E-04  9.31114180E-04  9.51582321E-04  9.31293739E-04  9.03845313E-04  8.85866869E-04  8.75706742E-04
    9.13224804E-04  9.31247243E-04  9.29956128E-04  8.44236461E-04  7.44772275E-04  6.90232508E-04  7.56749399E-04  8.87958351E-04       0.00105178       0.00126444       0.00141535       0.00165175       0.00184462       0.00205610       0.00203380       0.00203546       0.00211250       0.00222304       0.00203256       0.00192356
         0.00185390       0.00175567       0.00164646       0.00152355       0.00129808       0.00106707  8.46684767E-04  7.63713169E-04  6.64149985E-04  5.37016352E-04  4.37772076E-04  3.61327612E-04  3.07291525E-04  2.77925928E-04  2.46803813E-04  2.18347356E-04  1.95053052E-04  1.88592768E-04  1.87135458E-04  1.77723022E-04
    1.73445141E-04  1.70337643E-04  1.61669109E-04  1.51643085E-04  1.35110836E-04  1.19432488E-04  1.06627757E-04  1.01406239E-04  9.84552420E-05  1.02940345E-04  1.14286999E-04  1.16202495E-04  1.08249823E-04  9.68930886E-05  8.26512160E-05  7.43489579E-05  7.13096911E-05  6.77801635E-05  6.94373914E-05  7.32227060E-05
    8.31330009E-05  9.13606262E-05  9.41717394E-05  9.85049006E-05  1.06940522E-04  1.17185540E-04  1.37103025E-04  1.54821371E-04  1.69217807E-04  2.00943453E-04  2.25375306E-04  2.51543657E-04  2.64211380E-04  2.62960056E-04  2.43374675E-04  2.38039960E-04  2.26004507E-04  2.08576181E-04  2.10713955E-04  2.10861624E-04