# File generated by Flopy version 3.7.0 on 07/09/2024 at 15:37:30.
BEGIN options
END options

BEGIN griddata
  strt
    INTERNAL  FACTOR  1.0
        15.00000000      15.00000000      15.00000000      15.00000000      15.00000000      15.00000000      15.00000000      15.00000000      15.00000000      15.00000000      15.00000000      15.00000000      15.00000000      15.00000000      15.00000000      15.00000000      15.00000000      15.00000000      15.00000000      15.00000000
        15.00000000      15.00000000      15.00000000      15.00000000      15.00000000      15.00000000      15.00000000      15.00000000      15.00000000      15.00000000      15.00000000      15.00000000      15.00000000      15.00000000      15.00000000      15.00000000      15.00000000      15.00000000      15.00000000      15.00000000
        15.00000000      15.00000000      15.00000000      15.00000000      15.00000000      15.00000000      15.00000000      15.00000000      15.00000000      15.00000000      15.00000000      15.00000000      15.00000000      15.00000000      15.00000000      15.00000000      15.00000000      15.00000000      15.00000000      15.00000000
        15.00000000      15.00000000      15.00000000      15.00000000      15.00000000      15.00000000      15.00000000      15.00000000      15.00000000      15.00000000      15.00000000      15.00000000      15.00000000      15.00000000      15.00000000      15.00000000      15.00000000      15.00000000      15.00000000      15.00000000
        15.00000000      15.00000000      15.00000000      15.00000000      15.00000000      15.00000000      15.00000000      15.00000000      15.00000000      15.00000000      15.00000000      15.00000000      15.00000000      15.00000000      15.00000000      15.00000000      15.00000000      15.00000000      15.00000000      15.00000000
        15.04559557      15.04639839      15.04711069      15.04618044      15.04329866      15.03908023      15.03420192      15.03012370      15.02636184      15.02233691      15.01869417      15.01599563      15.01369061      15.01189508      15.01087028      15.01043392      15.01039746      15.01047709      15.01082215      15.01114122
        15.01128941      15.01147926      15.01174866      15.01241802      15.01329212      15.01441861      15.01618642      15.01865242      15.02165819      15.02465191      15.02712413      15.02884155      15.03045964      15.03266014      15.03550116      15.03762759      15.03833511      15.03860297      15.03857685      15.03807080
        15.03744380      15.03555778      15.03272160      15.03009181      15.02792285      15.02660062      15.02625508      15.02698041      15.02863413      15.02993592      15.03069082      15.03026482      15.02910591      15.02740764      15.02556077      15.02374305      15.02319648      15.02365396      15.02338340      15.02216880
        15.02054584      15.01914649      15.01846360      15.01828294      15.01871834      15.01891146      15.01870928      15.01823766      15.01751929      15.01691333      15.01707729      15.01826494      15.02106589      15.02421009      15.02622540      15.02725559      15.02781625      15.02799860      15.02797591      15.02887329
        15.03071344      15.03378461      15.03835889      15.04399164      15.04912945      15.05354061      15.05809979      15.06212522      15.06707992      15.07287487      15.07996590      15.08895462      15.09673121      15.10076616      15.10304491      15.10169767      15.09901348      15.09660861      15.09650535      15.09878788
        15.08432398      15.08447275      15.08335843      15.07985937      15.07364366      15.06644527      15.05925807      15.05267491      15.04673568      15.04057936      15.03467550      15.03008041      15.02669742      15.02439419      15.02309674      15.02271059      15.02289819      15.02327997      15.02356447      15.02368239
        15.02365239      15.02384691      15.02441827      15.02550100      15.02722399      15.02937272      15.03254225      15.03716675      15.04220725      15.04676660      15.05038575      15.05341347      15.05691239      15.06149542      15.06651785      15.07004037      15.07327410      15.07664495      15.07879722      15.07992492
        15.07970391      15.07765189      15.07437974      15.07063049      15.06766793      15.06708850      15.06935095      15.07207453      15.07457023      15.07596063      15.07532024      15.07336876      15.06938481      15.06409851      15.06100718      15.05944110      15.05816305      15.05648478      15.05330809      15.04968757
        15.04703655      15.04571126      15.04538036      15.04602168      15.04682491      15.04746111      15.04714300      15.04672450      15.04686900      15.04750512      15.04922163      15.05173381      15.05485160      15.05704011      15.05809457      15.05852296      15.05821278      15.05739048      15.05695381      15.05921682
        15.06344998      15.06878500      15.07599826      15.08391243      15.09270949      15.10178393      15.11049194      15.11876869      15.12785464      15.13928841      15.15137978      15.16415227      15.17406498      15.17957406      15.18241910      15.18403007      15.18743120      15.19401775      15.20263306      15.20788089
        15.11154063      15.10951806      15.10549186      15.09985275      15.09267733      15.08509066      15.07790144      15.07069075      15.06369774      15.05673430      15.05042978      15.04518492      15.04132977      15.03886823      15.03747982      15.03687698      15.03674498      15.03660473      15.03618136      15.03562860
        15.03543289      15.03586632      15.03678887      15.03821622      15.04053764      15.04410571      15.04905592      15.05523105      15.06146514      15.06684363      15.07180133      15.07682652      15.08256278      15.08921694      15.09641563      15.10340826      15.11123211      15.11882902      15.12564261      15.13190931
        15.13462368      15.13391639      15.13195650      15.13086663      15.13206166      15.13512959      15.13747492      15.13941776      15.14066543      15.13877471      15.13371173      15.12729402      15.12010997      15.11360673      15.10782200      15.10417310      15.10045155      15.09552120      15.08984751      15.08541472
        15.08280307      15.08236859      15.08320330      15.08512145      15.08642789      15.08701030      15.08675465      15.08602831      15.08589499      15.08587222      15.08608120      15.08610163      15.08576583      15.08540807      15.08579388      15.08702686      15.08847562      15.09024476      15.09259995      15.09662338
        15.10213905      15.10846561      15.11703001      15.12838839      15.14091514      15.15225958      15.16352551      15.17550786      15.18830180      15.20226886      15.21512996      15.22482228      15.23397089      15.24289678      15.25315666      15.26527663      15.27901691      15.29357466      15.30436317      15.30968923
        15.12495801      15.12239812      15.11820956      15.11287484      15.10662317      15.10012569      15.09356683      15.08687672      15.08031155      15.07391144      15.06798037      15.06297255      15.05892778      15.05572661      15.05349458      15.05176657      15.05023376      15.04862581      15.04731818      15.04659041
        15.04673874      15.04776750      15.04937522      15.05206832      15.05596848      15.06113421      15.06739899      15.07404455      15.08087582      15.08799440      15.09525478      15.10279739      15.11069476      15.11994159      15.13055349      15.14330305      15.15735027      15.17156768      15.18603113      15.19819778
        15.20689074      15.21149582      15.21749957      15.22391750      15.22824707      15.23052899      15.22755287      15.22347243      15.21804758      15.20996818      15.19977355      15.18838205      15.17727381      15.16841791      15.16002194      15.15195721      15.14385371      15.13614632      15.13013923      15.12605937
        15.12440638      15.12464448      15.12611820      15.12779405      15.12804548      15.12708005      15.12577112      15.12336171      15.12021709      15.11677124      15.11375656      15.11134753      15.11024806      15.11145977      15.11552205      15.12144288      15.12805192      15.13478352      15.14116490      15.14671360
        15.15195049      15.15872135      15.16931508      15.18304139      15.19634007      15.20880775      15.22256700      15.23777677      15.25234214      15.26453811      15.27556641      15.28697698      15.29981071      15.31485184      15.33264821      15.35149454      15.37232387      15.39154927      15.40545182      15.41409494
        15.13445353      15.13219404      15.12900733      15.12506831      15.12005752      15.11460578      15.10911344      15.10351841      15.09837396      15.09347950      15.08874220      15.08435136      15.07985422      15.07519518      15.07100818      15.06731383      15.06418612      15.06177500      15.06012775      15.05991502
        15.06078869      15.06272414      15.06584232      15.07062277      15.07662063      15.08266993      15.08919528      15.09688433      15.10527964      15.11483799      15.12474363      15.13484168      15.14638537      15.16068744      15.17790972      15.19653627      15.21740429      15.24043271      15.26487995      15.28613556
        15.30689398      15.32370666      15.33717552      15.34319125      15.34237825      15.33586385      15.32586778      15.31328856      15.29762294      15.28137122      15.26456139      15.24805924      15.23241430      15.21828418      15.20637921      15.19486444      15.18431781      15.17616716      15.17096215      15.16817305
        15.16740321      15.16768630      15.16767553      15.16698399      15.16497578      15.16116898      15.15631537      15.15102660      15.14554605      15.14083721      15.13772220      15.13701951      15.13976095      15.14719464      15.15868376      15.17108844      15.18366643      15.19450880      15.20288985      15.20969293
        15.21646679      15.22578125      15.23818167      15.25153969      15.26473419      15.27959677      15.29498917      15.31148865      15.32575269      15.33760103      15.35133327      15.37045884      15.38923683      15.40801199      15.42832996      15.45196660      15.47876846      15.50106823      15.51805725      15.52792625
        15.14540620      15.14384638      15.14127514      15.13819350      15.13446695      15.13029361      15.12654984      15.12299590      15.11983641      15.11619654      15.11219871      15.10789292      15.10246233      15.09629224      15.09025251      15.08491578      15.08100873      15.07908802      15.07905705      15.08046656
        15.08296838      15.08704394      15.09269007      15.09855606      15.10504875      15.11125431      15.11877989      15.12930612      15.14030251      15.15271241      15.16605496      15.18234485      15.20162049      15.22510213      15.25271946      15.28379499      15.31560978      15.34874706      15.37894936      15.40653465
        15.43194141      15.45027911      15.45738024      15.45513484      15.44760655      15.43352928      15.41542369      15.39292908      15.36754029      15.34282812      15.31928400      15.29870059      15.28020097      15.26293140      15.24803937      15.23523335      15.22534326      15.21849226      15.21401729      15.21187536
        15.21049973      15.20830654      15.20481172      15.20002422      15.19500923      15.18881039      15.18164506      15.17497639      15.16913267      15.16592829      15.16656576      15.17176420      15.18369917      15.20188522      15.22108902      15.23803231      15.25262347      15.26449949      15.27517252      15.28781166
        15.30289513      15.31864677      15.33167290      15.34419530      15.35926118      15.37735223      15.39703551      15.41471523      15.43050428      15.44832818      15.46959709      15.49247250      15.51565619      15.53856953      15.56303342      15.58795404      15.60910087      15.62428472      15.63561724      15.64051544
        15.15985986      15.15844086      15.15629470      15.15412873      15.15243737      15.15066478      15.14905397      15.14691774      15.14417829      15.14049847      15.13629388      15.13133540      15.12521610      15.11774433      15.11085836      15.10563508      15.10336271      15.10474434      15.10869504      15.11369702
        15.11942338      15.12585894      15.13274439      15.14081115      15.14982407      15.15931322      15.17065314      15.18317941      15.19713361      15.21500487      15.23879340      15.26830471      15.30237715      15.33985788      15.37836402      15.41672359      15.45152226      15.48157516      15.50724293      15.53074380
        15.54732140      15.55661116      15.55574503      15.54798642      15.53438794      15.51304983      15.48598770      15.45628952      15.42507152      15.39513547      15.36677808      15.34348875      15.32381962      15.30609314      15.29145202      15.28015762      15.27133187      15.26383152      15.25782624      15.25226421
        15.24686019      15.24022625      15.23318933      15.22582270      15.21855865      15.21167994      15.20545328      15.20094384      15.19913775      15.20206951      15.21124073      15.22764455      15.25104506      15.27707792      15.29901626      15.31637554      15.33261864      15.35042583      15.37262533      15.40065639
        15.42814686      15.45227392      15.47685806      15.50103582      15.52308831      15.54408927      15.56166922      15.57078596      15.58183488      15.60069643      15.62284621      15.64425457      15.66680041      15.68951110      15.71044056      15.72549368      15.73350137      15.73828665      15.74146785      15.74302564
        15.17826876      15.17692566      15.17551670      15.17475493      15.17517684      15.17560427      15.17512069      15.17304713      15.17053012      15.16728912      15.16291923      15.15740276      15.15109673      15.14369556      15.13779430      15.13593570      15.13993167      15.14871013      15.15924282      15.16849859
        15.17774279      15.18784896      15.19977834      15.21560345      15.23187801      15.24714619      15.26266565      15.27975204      15.30190095      15.33174750      15.36850365      15.40922598      15.45128876      15.49039323      15.52555332      15.55635659      15.58337781      15.60506667      15.62515863      15.63981319
        15.64587079      15.64749527      15.64309909      15.63107010      15.61069440      15.58163122      15.54777008      15.51354215      15.47917808      15.44705106      15.41673392      15.39139787      15.37143702      15.35486428      15.34071814      15.32787491      15.31630123      15.30550410      15.29519693      15.28468316
        15.27456197      15.26513117      15.25649219      15.24896707      15.24226166      15.23730942      15.23540487      15.23761194      15.24610257      15.25986720      15.28125812      15.30963097      15.34085214      15.36928368      15.39352256      15.41899778      15.44964256      15.48593661      15.53057531      15.57914181
        15.62391852      15.66131258      15.69632409      15.72848540      15.74824785      15.75612088      15.75747410      15.75391500      15.75366895      15.76176936      15.77455588      15.78991700      15.80248243      15.81241402      15.81927229      15.82303739      15.82418397      15.82453282      15.82363082      15.82310653
        15.20391959      15.20296120      15.20168362      15.20179220      15.20315827      15.20417565      15.20411579      15.20358427      15.20276544      15.20135473      15.19869545      15.19502847      15.19112847      15.18822460      15.19078912      15.19966920      15.21349816      15.23130880      15.24912052      15.26637423
        15.28316839      15.30637710      15.33211424      15.35419037      15.37212180      15.38914254      15.40972568      15.43486245      15.46247691      15.49517188      15.53151315      15.56765206      15.60021086      15.62979145      15.65782622      15.68191283      15.70231221      15.71831528      15.72958003      15.73537841
        15.73571714      15.73138570      15.72089823      15.70240547      15.67529590      15.64254513      15.60751312      15.57194194      15.53668225      15.50430226      15.47505510      15.44961182      15.42872624      15.40976139      15.39267423      15.37529973      15.35756310      15.34210264      15.32708404      15.31317975
        15.30064932      15.28995884      15.28156847      15.27579776      15.27325635      15.27484243      15.28120805      15.29528751      15.31633700      15.34367619      15.38246406      15.42653238      15.46888869      15.51133959      15.55492886      15.60420907      15.66121720      15.72664175      15.78757193      15.84381219
        15.88910989      15.92161949      15.94407375      15.95613050      15.95680205      15.94605679      15.93019356      15.91636279      15.90647498      15.90309597      15.90428835      15.90604101      15.90529696      15.90194662      15.89688624      15.89324615      15.89166685      15.89157566      15.88996393      15.88843012
        15.24061399      15.23966594      15.23904554      15.23953999      15.24044105      15.24194676      15.24536931      15.24947348      15.25271769      15.25527527      15.25735363      15.26103008      15.26860364      15.28311723      15.30350981      15.32851035      15.35880013      15.39198884      15.42164502      15.45528333
        15.48752290      15.51438290      15.53049553      15.53931395      15.54834353      15.56103235      15.58071114      15.60550213      15.62895741      15.65259301      15.67851616      15.70413715      15.73060627      15.75802577      15.78529401      15.80523057      15.81760237      15.82430521      15.82622838      15.82613545
        15.82046788      15.80718837      15.78759879      15.76215526      15.73188443      15.69841434      15.66513542      15.63313988      15.60160566      15.57120384      15.54246803      15.51604853      15.49231181      15.46925611      15.44577126      15.42268415      15.39974329      15.37917952      15.36122745      15.34540488
        15.33230218      15.32194097      15.31571023      15.31488066      15.31992944      15.33237799      15.35380012      15.38602244      15.42589673      15.47822592      15.54582161      15.61695237      15.68762921      15.76139293      15.82943218      15.89546460      15.96599905      16.03572100      16.08462037      16.12027854
        16.14193549      16.14993954      16.14818497      16.13375021      16.11289138      16.09122370      16.06735164      16.04598133      16.02917907      16.01613047      16.00472747      15.99330046      15.98370270      15.97512954      15.96758107      15.96113305      15.95606783      15.95169685      15.94864236      15.94707432
        15.28649405      15.28763007      15.29055215      15.29454321      15.30055145      15.30711578      15.31489391      15.32325478      15.33447188      15.34805885      15.36557040      15.39080164      15.42528113      15.46946433      15.51896833      15.57045704      15.62099603      15.67036394      15.71138019      15.73172023
        15.73966305      15.73787451      15.72745939      15.71914544      15.71517435      15.71699190      15.73036752      15.75134777      15.77176454      15.79017949      15.81033370      15.83521666      15.86311582      15.89101029      15.91371575      15.92630574      15.93028610      15.92873860      15.92180093      15.91040452
        15.89416161      15.87247467      15.84903441      15.82273485      15.79465014      15.76517695      15.73585822      15.70873551      15.68045667      15.65003739      15.61692324      15.58510763      15.55650987      15.52942158      15.50189730      15.47342482      15.44696438      15.42375612      15.40452419      15.38917890
        15.37757113      15.37069010      15.36992398      15.37762163      15.39580728      15.42642111      15.46948499      15.52423888      15.59520172      15.68136486      15.78186713      15.87687991      15.96346005      16.05057960      16.12418756      16.18874329      16.24801367      16.29261247      16.31397717      16.32059737
        16.31745423      16.30467007      16.28369168      16.25680046      16.22628328      16.19699548      16.16999146      16.14495701      16.12287503      16.10277550      16.08406768      16.06983803      16.05812678      16.04712147      16.03693876      16.02586170      16.01532828      16.00561085      15.99898005      15.99534501
        15.35584258      15.36333614      15.37214335      15.38083256      15.39296079      15.40526573      15.42000220      15.44032232      15.46855800      15.50270684      15.55045423      15.60663741      15.67503540      15.75664489      15.83639163      15.90593867      15.95811550      15.98852181      15.99760108      15.97900620
        15.94901934      15.92263138      15.89806065      15.87806233      15.86273407      15.85768331      15.86877536      15.88767286      15.90798643      15.92907772      15.95279221      15.97936650      16.00234446      16.02073199      16.03143205      16.03264859      16.02671584      16.01548980      15.99963192      15.97875167
        15.95663986      15.93412905      15.91258600      15.89105839      15.86872011      15.84454650      15.81926189      15.79276973      15.76126012      15.72558245      15.68708169      15.64995613      15.61633303      15.58428975      15.55505739      15.52633145      15.49996474      15.47907269      15.46339887      15.45278590
        15.44674550      15.44726780      15.45597242      15.47682699      15.51230345      15.56362260      15.63070491      15.71596326      15.81883765      15.93109522      16.04068754      16.13938090      16.22783975      16.30697116      16.36779551      16.41405192      16.44621778      16.46091746      16.45970028      16.44779158
        16.42855562      16.40514002      16.37693860      16.34561707      16.31413117      16.28157340      16.25056490      16.22278666      16.19842670      16.17670723      16.15767228      16.14186898      16.12664190      16.11021943      16.09331569      16.07666955      16.06114957      16.04840651      16.03892892      16.03350498
        15.47497095      15.48041220      15.48868899      15.50101966      15.51977821      15.54095307      15.56973505      15.60788678      15.65937975      15.72433359      15.80338818      15.88866786      15.98364073      16.07842952      16.15227797      16.19887585      16.21764815      16.20956835      16.18462173      16.15412875
        16.12038156      16.08957327      16.05971683      16.03377369      16.01451930      16.01011472      16.02013428      16.03685397      16.05837324      16.08300818      16.10294719      16.11737657      16.12497827      16.12582681      16.12005482      16.10921266      16.09467108      16.07700428      16.05688026      16.03591455
        16.01488580      15.99395271      15.97445512      15.95567372      15.93591430      15.91337156      15.88763587      15.85841331      15.82467380      15.78601372      15.74426309      15.70423247      15.66860174      15.63685932      15.60940394      15.58583826      15.56672582      15.55419391      15.54852831      15.54770360
        15.55310795      15.56705229      15.59275525      15.63283736      15.68476902      15.75796839      15.85383595      15.97167613      16.09405133      16.20642782      16.30518024      16.39591834      16.46589235      16.51489703      16.54741177      16.56577460      16.57119242      16.56438387      16.54998112      16.53035074
        16.50598833      16.47980553      16.45067552      16.41873726      16.38651315      16.35324610      16.32039036      16.29076702      16.26488411      16.24057393      16.21763233      16.19572056      16.17516503      16.15416305      16.13284141      16.11321077      16.09633013      16.08342638      16.07461752      16.06986137
        15.63798132      15.63886012      15.64695320      15.67141119      15.70455061      15.74134551      15.78944052      15.84571670      15.91457953      15.99834704      16.09111929      16.18540204      16.27150987      16.33398317      16.36603548      16.37395821      16.36492513      16.34510336      16.32068417      16.29773422
        16.27333576      16.24901180      16.22557164      16.20626025      16.19266583      16.18832023      16.19095000      16.19877821      16.21022906      16.22129128      16.22397870      16.21918849      16.21006180      16.19702652      16.17994264      16.16149724      16.14261990      16.12293106      16.10187718      16.08140455
        16.06242037      16.04251937      16.02236022      16.00290272      15.98244546      15.95952712      15.93383929      15.90486765      15.87235349      15.83559463      15.79518113      15.75656323      15.72336717      15.69662672      15.67677811      15.66260765      15.65353425      15.65040566      15.65705208      15.67231902
        15.69783755      15.73468864      15.78394190      15.84549722      15.92093910      16.02125136      16.14105858      16.26598929      16.37784754      16.46995448      16.54447605      16.59717827      16.62514183      16.64110146      16.64765337      16.64704907      16.63914574      16.62445907      16.60495149      16.58422841
        16.56042230      16.53449548      16.50523464      16.47337472      16.44062605      16.40600955      16.37231433      16.34046783      16.31130298      16.28373654      16.25629981      16.22993096      16.20620787      16.18442276      16.16384437      16.14498806      16.12931499      16.11859548      16.11219749      16.10900342
        15.85819787      15.86740824      15.88772533      15.92189347      15.96618193      16.01512951      16.06958134      16.12920442      16.20045653      16.27774255      16.35452065      16.41951221      16.46545460      16.48924527      16.49461711      16.48827146      16.47792153      16.46433683      16.44748251      16.43157162
        16.41457004      16.39966290      16.38449426      16.36903989      16.35487851      16.34284967      16.33346660      16.32560433      16.31909464      16.31110562      16.29962765      16.28414295      16.26608730      16.24587726      16.22494445      16.20428007      16.18376885      16.16313237      16.14175016      16.12035111
        16.09962211      16.07963726      16.05998780      16.04029068      16.01994599      15.99742599      15.97301635      15.94642021      15.91784223      15.88674476      15.85145667      15.81741277      15.78993717      15.77096035      15.76019659      15.75753079      15.76241780      15.77540325      15.79742418      15.82856903
        15.87140418      15.92879366      15.99855968      16.08130975      16.18052352      16.29261476      16.40663419      16.50785266      16.58650953      16.64206117      16.67670835      16.69247598      16.69706883      16.69737892      16.69307306      16.68558529      16.67404454      16.65913535      16.64050401      16.61977583
        16.59633039      16.57042501      16.54083980      16.50836238      16.47534780      16.43967456      16.40361947      16.36995954      16.33853523      16.30893918      16.28086290      16.25473892      16.23112983      16.21004593      16.19159926      16.17665700      16.16481662      16.15641894      16.15096711      16.14759707
        16.14130868      16.15582208      16.18407475      16.21809908      16.25571640      16.29294765      16.33464769      16.38298093      16.44117391      16.49789221      16.54100232      16.56913927      16.58599345      16.59285832      16.59190453      16.58432544      16.57379849      16.56124515      16.54599952      16.53196927
        16.51833416      16.50519989      16.48951147      16.47213562      16.45289110      16.43241896      16.41417143      16.39553158      16.37837403      16.36163091      16.34388813      16.32531892      16.30575821      16.28396433      16.26147359      16.24012592      16.21990742      16.20016643      16.17960016      16.15886705
        16.13871913      16.11875226      16.09978466      16.08082594      16.06137051      16.04098713      16.01970378      15.99685824      15.97226423      15.94708996      15.91977977      15.89327925      15.87324125      15.86430847      15.86775647      15.87939503      15.89794486      15.92394208      15.95729177      15.99777362
        16.05043082      16.11872660      16.20159611      16.29638009      16.39844169      16.49796460      16.58305857      16.64675796      16.68654873      16.70853441      16.72006652      16.72413985      16.72380897      16.72058850      16.71467736      16.70688971      16.69566852      16.68084113      16.66268085      16.64225308
        16.61879716      16.59261463      16.56341988      16.53182917      16.49868563      16.46289678      16.42646671      16.39175480      16.36035402      16.33134774      16.30406215      16.27957404      16.25839305      16.24020325      16.22438592      16.21132011      16.20059908      16.19162559      16.18514029      16.18111940
        16.44099167      16.45139895      16.46479592      16.48130051      16.50042313      16.52248371      16.55103891      16.58483099      16.61743871      16.64452168      16.66007160      16.66708564      16.66841566      16.66411629      16.65491231      16.64285901      16.62828521      16.61236492      16.59578394      16.58071632
        16.56657604      16.55191443      16.53546162      16.51787622      16.49842686      16.47694359      16.45488283      16.43204117      16.41083520      16.39139555      16.37204387      16.35233287      16.33288298      16.31267036      16.29157172      16.27140795      16.25264725      16.23440042      16.21551790      16.19638305