# File generated by Flopy version 3.6.0 on 05/23/2024 at 10:26:01.
BEGIN options
END options

BEGIN dimensions
  MAXBOUND  7355
END dimensions

BEGIN period  1
  1 1 1.94054903E-08
  1 2 1.97869256E-08
  1 3 1.85549550E-08
  1 4 1.79097874E-08
  1 5 1.74892059E-08
  1 6 1.76773029E-08
  1 7 1.88408383E-08
  1 8 1.85631637E-08
  1 9 1.44558494E-08
  1 10 1.34904486E-08
  1 11 1.47924811E-08
  1 12 1.56073436E-08
  1 13 1.48135743E-08
  1 14 1.39231654E-08
  1 15 1.50286973E-08
  1 16 1.56905939E-08
  1 17 1.70573681E-08
  1 18 1.86084672E-08
  1 19 1.93791274E-08
  1 20 1.96403053E-08
  1 21 1.84753441E-08
  1 22 1.60904514E-08
  1 23 1.48727667E-08
  1 24 1.59587998E-08
  1 25 1.58269907E-08
  1 26 1.47844704E-08
  1 27 1.34676155E-08
  1 28 1.18787322E-08
  1 29 1.13370640E-08
  1 30 1.14374588E-08
  1 31 1.23852710E-08
  1 32 1.32795761E-08
  1 33 1.35895595E-08
  1 34 1.36162855E-08
  1 35 1.34270595E-08
  1 36 1.48089271E-08
  1 37 1.63341488E-08
  1 38 1.47723036E-08
  1 39 1.43099385E-08
  1 40 1.56365810E-08
  1 41 1.70885539E-08
  1 42 1.88374306E-08
  1 43 1.79277529E-08
  1 44 1.70270510E-08
  1 45 1.76065402E-08
  1 46 1.86554412E-08
  1 47 1.72479310E-08
  1 48 1.48874366E-08
  1 49 1.33151177E-08
  1 50 1.29147499E-08
  1 51 1.44377158E-08
  1 52 1.49511194E-08
  1 53 1.47656356E-08
  1 54 1.47544709E-08
  1 55 1.55954950E-08
  1 56 1.73700990E-08
  1 57 1.87905431E-08
  1 58 1.98677917E-08
  1 59 2.23637790E-08
  1 60 2.16840218E-08
  1 61 2.15662740E-08
  1 62 2.10661076E-08
  1 63 1.99674209E-08
  1 64 1.77311281E-08
  1 65 1.55374781E-08
  1 66 1.36611302E-08
  1 67 1.24759748E-08
  1 68 1.18704394E-08
  1 69 1.54028942E-08
  1 70 2.03478792E-08
  1 71 2.20870449E-08
  1 72 2.28017927E-08
  1 73 2.23258897E-08
  1 74 2.03254902E-08
  1 75 1.69935178E-08
  1 76 1.53691109E-08
  1 77 1.41810859E-08
  1 78 1.46782237E-08
  1 79 1.39475344E-08
  1 80 1.29421795E-08
  1 81 1.32155211E-08
  1 82 1.38396066E-08
  1 83 1.53470117E-08
  1 84 1.60457884E-08
  1 85 1.53527406E-08
  1 86 1.51139360E-08
  1 87 1.45546907E-08
  1 88 1.33536137E-08
  1 89 1.32235952E-08
  1 90 1.27432869E-08
  1 91 1.33546469E-08
  1 92 1.37298960E-08
  1 93 1.40831165E-08
  1 94 1.34829095E-08
  1 95 1.39252086E-08
  1 96 1.59731349E-08
  1 97 1.71165814E-08
  1 98 1.87119344E-08
  1 99 2.00741619E-08
  1 100 1.83989468E-08
  1 101 1.70999568E-08
  1 102 1.61317929E-08
  1 103 1.56021598E-08
  1 104 1.61497437E-08
  1 105 1.54142819E-08
  1 106 1.36538472E-08
  1 107 1.39373807E-08
  1 108 1.48824510E-08
  1 109 1.49462330E-08
  1 110 1.39238597E-08
  1 111 1.30376919E-08
  1 112 1.37003442E-08
  1 113 1.50990602E-08
  1 114 1.63326923E-08
  1 115 1.78253569E-08
  1 116 1.92181492E-08
  1 117 1.89367151E-08
  1 118 1.78130655E-08
  1 119 1.67773295E-08
  1 120 1.54738523E-08
  1 121 1.42095058E-08
  1 122 1.41345617E-08
  1 123 1.41328570E-08
  1 124 1.31608725E-08
  1 125 1.24287226E-08
  1 126 1.17840268E-08
  1 127 1.16112130E-08
  1 128 1.25584663E-08
  1 129 1.41898176E-08
  1 130 1.47578481E-08
  1 131 1.51099142E-08
  1 132 1.40902480E-08
  1 133 1.46238083E-08
  1 134 1.63507702E-08
  1 135 1.59509395E-08
  1 136 1.46949016E-08
  1 137 1.53780399E-08
  1 138 1.79150972E-08
  1 139 1.89154701E-08
  1 140 1.73998593E-08
  1 141 1.69132472E-08
  1 142 1.70497351E-08
  1 143 1.66387970E-08
  1 144 1.56588708E-08
  1 145 1.37769457E-08
  1 146 1.31806311E-08
  1 147 1.26849123E-08
  1 148 1.31420694E-08
  1 149 1.43266315E-08
  1 150 1.50044054E-08
  1 151 1.50447193E-08
  1 152 1.53952479E-08
  1 153 1.77672482E-08
  1 154 1.98010350E-08
  1 155 2.17644172E-08
  1 156 2.33034622E-08
  1 157 2.11741399E-08
  1 158 2.02957934E-08
  1 159 1.94975894E-08
  1 160 1.93094713E-08
  1 161 1.75542427E-08
  1 162 1.54905617E-08
  1 163 1.40732323E-08
  1 164 1.29082676E-08
  1 165 1.24195520E-08
  1 166 1.49304697E-08
  1 167 1.97523202E-08
  1 168 2.19506758E-08
  1 169 2.33459764E-08
  1 170 2.34163196E-08
  1 171 2.26021949E-08
  1 172 1.96762037E-08
  1 173 1.60061799E-08
  1 174 1.34478380E-08
  1 175 1.33495481E-08
  1 176 1.27784522E-08
  1 177 1.17585629E-08
  1 178 1.21041385E-08
  1 179 1.33828783E-08
  1 180 1.37523638E-08
  1 181 1.54078761E-08
  1 182 1.51986643E-08
  1 183 1.51216766E-08
  1 184 1.50638585E-08
  1 185 1.37652911E-08
  1 186 1.30012574E-08
  1 187 1.28038068E-08
  1 188 1.35500957E-08
  1 189 1.44261152E-08
  1 190 1.55167823E-08
  1 191 1.60375261E-08
  1 192 1.64203547E-08
  1 193 1.69729348E-08
  1 194 1.73012983E-08
  1 195 1.84615798E-08
  1 196 1.98662950E-08
  1 197 1.88028050E-08
  1 198 1.68054724E-08
  1 199 1.68524280E-08
  1 200 1.63608071E-08
  1 201 1.22193323E-08
  1 202 1.18493677E-08
  1 203 1.26539091E-08
  1 204 1.48950127E-08
  1 205 1.54607908E-08
  1 206 1.38429245E-08
  1 207 1.40182747E-08
  1 208 1.42500614E-08
  1 209 1.28488119E-08
  1 210 1.36193015E-08
  1 211 1.51341853E-08
  1 212 1.69304316E-08
  1 213 1.80820721E-08
  1 214 1.72677280E-08
  1 215 1.64021221E-08
  1 216 1.56721170E-08
  1 217 1.52550557E-08
  1 218 1.36289785E-08
  1 219 1.23994263E-08
  1 220 1.25103251E-08
  1 221 1.17734856E-08
  1 222 1.15969198E-08
  1 223 1.18507015E-08
  1 224 1.26190571E-08
  1 225 1.49422490E-08
  1 226 1.75743071E-08
  1 227 1.78410725E-08
  1 228 1.69865247E-08
  1 229 1.63122133E-08
  1 230 1.60027737E-08
  1 231 1.65319708E-08
  1 232 1.63058366E-08
  1 233 1.56110294E-08
  1 234 1.66736315E-08
  1 235 1.93672056E-08
  1 236 1.94315939E-08
  1 237 1.83790436E-08
  1 238 1.63646601E-08
  1 239 1.55709333E-08
  1 240 1.47446706E-08
  1 241 1.44555385E-08
  1 242 1.25615494E-08
  1 243 1.17358398E-08
  1 244 1.20619631E-08
  1 245 1.13839574E-08
  1 246 1.32307990E-08
  1 247 1.46981027E-08
  1 248 1.59316949E-08
  1 249 1.59572883E-08
  1 250 1.79592911E-08
  1 251 2.07794389E-08
  1 252 2.15076335E-08
  1 253 2.08654294E-08
  1 254 1.95147587E-08
  1 255 1.92196366E-08
  1 256 1.89805468E-08
  1 257 1.87775367E-08
  1 258 1.84235829E-08
  1 259 1.65411128E-08
  1 260 1.55346210E-08
  1 261 1.38416689E-08
  1 262 1.35431919E-08
  1 263 1.50354171E-08
  1 264 1.85296095E-08
  1 265 2.03260184E-08
  1 266 2.21557903E-08
  1 267 2.16241226E-08
  1 268 1.99722004E-08
  1 269 1.66934441E-08
  1 270 1.42484132E-08
  1 271 1.30194034E-08
  1 272 1.24627633E-08
  1 273 1.20544731E-08
  1 274 1.18055766E-08
  1 275 1.34051535E-08
  1 276 1.45985303E-08
  1 277 1.39673666E-08
  1 278 1.45951084E-08
  1 279 1.45158277E-08
  1 280 1.46080421E-08
  1 281 1.46713076E-08
  1 282 1.36737175E-08
  1 283 1.29320233E-08
  1 284 1.30562013E-08
  1 285 1.43405605E-08
  1 286 1.53047380E-08
  1 287 1.61018647E-08
  1 288 1.67738285E-08
  1 289 1.86137854E-08
  1 290 1.91363583E-08
  1 291 1.77973989E-08
  1 292 1.74865361E-08
  1 293 1.74193909E-08
  1 294 1.82553361E-08
  1 295 1.78530912E-08
  1 296 1.72462740E-08
  1 297 1.64193372E-08
  1 298 1.60577384E-08
  1 299 1.87401014E-08
  1 300 2.05606977E-08
  1 301 1.25757936E-08
  1 302 1.37150273E-08
  1 303 1.27325020E-08
  1 304 1.19272344E-08
  1 305 1.24599410E-08
  1 306 1.20670447E-08
  1 307 1.27844027E-08
  1 308 1.40950133E-08
  1 309 1.58009380E-08
  1 310 1.71934500E-08
  1 311 1.66237293E-08
  1 312 1.58138344E-08
  1 313 1.53813051E-08
  1 314 1.46874476E-08
  1 315 1.36441149E-08
  1 316 1.18699508E-08
  1 317 1.12562973E-08
  1 318 1.08785662E-08
  1 319 1.07192357E-08
  1 320 1.18674118E-08
  1 321 1.38787991E-08
  1 322 1.76589069E-08
  1 323 2.11334910E-08
  1 324 1.99917821E-08
  1 325 1.84515711E-08
  1 326 1.85436726E-08
  1 327 1.87500711E-08
  1 328 1.70166736E-08
  1 329 1.67368360E-08
  1 330 1.62055243E-08
  1 331 1.74982060E-08
  1 332 1.92903370E-08
  1 333 1.95237472E-08
  1 334 1.84820948E-08
  1 335 1.64606285E-08
  1 336 1.48665361E-08
  1 337 1.29695863E-08
  1 338 1.29461394E-08
  1 339 1.17881966E-08
  1 340 1.04689899E-08
  1 341 1.10863952E-08
  1 342 1.07948293E-08
  1 343 1.29632321E-08
  1 344 1.47727671E-08
  1 345 1.63097901E-08
  1 346 1.80271037E-08
  1 347 1.82584758E-08
  1 348 1.87441690E-08
  1 349 1.84389508E-08
  1 350 1.87178096E-08
  1 351 1.70807747E-08
  1 352 1.79828234E-08
  1 353 1.85035210E-08
  1 354 1.90058772E-08
  1 355 1.99642587E-08
  1 356 1.85286077E-08
  1 357 1.63951520E-08
  1 358 1.46799573E-08
  1 359 1.52650719E-08
  1 360 1.56127656E-08
  1 361 1.73970370E-08
  1 362 1.94057083E-08
  1 363 2.00018787E-08
  1 364 1.86575745E-08
  1 365 1.66674227E-08
  1 366 1.36609257E-08
  1 367 1.20591889E-08
  1 368 1.15916383E-08
  1 369 1.19307939E-08
  1 370 1.15417165E-08
  1 371 1.20051751E-08
  1 372 1.37453081E-08
  1 373 1.55750781E-08
  1 374 1.44596033E-08
  1 375 1.36943020E-08
  1 376 1.39533384E-08
  1 377 1.44351200E-08
  1 378 1.44416741E-08
  1 379 1.30213277E-08
  1 380 1.33077935E-08
  1 381 1.28333918E-08
  1 382 1.38784800E-08
  1 383 1.53392806E-08
  1 384 1.60952962E-08
  1 385 1.65712244E-08
  1 386 1.82661187E-08
  1 387 1.89928514E-08
  1 388 1.76125558E-08
  1 389 1.67491415E-08
  1 390 1.65231288E-08
  1 391 1.72459740E-08
  1 392 1.74741083E-08
  1 393 1.63282523E-08
  1 394 1.53659129E-08
  1 395 1.50993930E-08
  1 396 1.84778926E-08
  1 397 1.99722998E-08
  1 398 1.80281966E-08
  1 399 1.76933801E-08
  1 400 1.71501573E-08
  1 401 1.13579543E-08
  1 402 1.07721765E-08
  1 403 1.09030631E-08
  1 404 1.13779010E-08
  1 405 1.26970718E-08
  1 406 1.42671103E-08
  1 407 1.56283952E-08
  1 408 1.60032703E-08
  1 409 1.63579032E-08
  1 410 1.62220780E-08
  1 411 1.50757533E-08
  1 412 1.44275426E-08
  1 413 1.30538913E-08
  1 414 1.17939823E-08
  1 415 1.08692379E-08
  1 416 1.05596981E-08
  1 417 1.19828654E-08
  1 418 1.45798346E-08
  1 419 1.72066567E-08
  1 420 2.01523175E-08
  1 421 2.02524256E-08
  1 422 1.80748044E-08
  1 423 1.80262510E-08
  1 424 1.88996085E-08
  1 425 1.75420019E-08
  1 426 1.81082837E-08
  1 427 1.84283578E-08
  1 428 1.83407964E-08
  1 429 1.91492029E-08
  1 430 1.89279771E-08
  1 431 1.88027989E-08
  1 432 1.75218669E-08
  1 433 1.59406413E-08
  1 434 1.36335419E-08
  1 435 1.20792843E-08
  1 436 1.17370963E-08
  1 437 1.11054126E-08
  1 438 1.14964690E-08
  1 439 1.17702216E-08
  1 440 1.34512125E-08
  1 441 1.50258423E-08
  1 442 1.66899525E-08
  1 443 1.88952126E-08
  1 444 1.89411186E-08
  1 445 1.76329127E-08
  1 446 1.70930459E-08
  1 447 1.60809000E-08
  1 448 1.50501327E-08
  1 449 1.63304075E-08
  1 450 1.84278568E-08
  1 451 2.07900521E-08
  1 452 1.97531430E-08
  1 453 1.83506487E-08
  1 454 1.61498289E-08
  1 455 1.61326644E-08
  1 456 1.64261851E-08
  1 457 1.72032433E-08
  1 458 1.85022330E-08
  1 459 1.93321170E-08
  1 460 2.07895571E-08
  1 461 1.84271556E-08
  1 462 1.59842529E-08
  1 463 1.37015458E-08
  1 464 1.13793334E-08
  1 465 1.07764445E-08
  1 466 1.13800939E-08
  1 467 1.19341300E-08
  1 468 1.31924384E-08
  1 469 1.44048226E-08
  1 470 1.62884021E-08
  1 471 1.59082257E-08
  1 472 1.44512530E-08
  1 473 1.45975939E-08
  1 474 1.40203970E-08
  1 475 1.34631011E-08
  1 476 1.18936035E-08
  1 477 1.21282918E-08
  1 478 1.29490055E-08
  1 479 1.31383687E-08
  1 480 1.45881907E-08
  1 481 1.53517657E-08
  1 482 1.58255779E-08
  1 483 1.69804128E-08
  1 484 1.70363996E-08
  1 485 1.64228039E-08
  1 486 1.63147243E-08
  1 487 1.63829549E-08
  1 488 1.73720567E-08
  1 489 1.83085872E-08
  1 490 1.78966637E-08
  1 491 1.74237905E-08
  1 492 1.63223079E-08
  1 493 1.78169495E-08
  1 494 1.85188313E-08
  1 495 1.71013653E-08
  1 496 1.71008131E-08
  1 497 1.59743226E-08
  1 498 1.62267715E-08
  1 499 1.73679609E-08
  1 500 1.97214819E-08
  1 501 1.05716411E-08
  1 502 1.14739392E-08
  1 503 1.32334088E-08
  1 504 1.46180640E-08
  1 505 1.54464882E-08
  1 506 1.71217923E-08
  1 507 1.73420703E-08
  1 508 1.59466049E-08
  1 509 1.53182921E-08
  1 510 1.48059165E-08
  1 511 1.32734040E-08
  1 512 1.23838326E-08
  1 513 1.22007280E-08
  1 514 1.40979818E-08
  1 515 1.62503680E-08
  1 516 1.78695831E-08
  1 517 1.94669021E-08
  1 518 2.11797508E-08
  1 519 2.02175406E-08
  1 520 1.76190802E-08
  1 521 1.70313655E-08
  1 522 1.73707335E-08
  1 523 1.74721491E-08
  1 524 1.94211263E-08
  1 525 1.93866385E-08
  1 526 1.84956778E-08
  1 527 1.90161826E-08
  1 528 1.94416475E-08
  1 529 1.87011099E-08
  1 530 1.61572175E-08
  1 531 1.49923474E-08
  1 532 1.43451659E-08
  1 533 1.30097411E-08
  1 534 1.22496643E-08
  1 535 1.26796818E-08
  1 536 1.37251222E-08
  1 537 1.37226135E-08
  1 538 1.51961398E-08
  1 539 1.75155174E-08
  1 540 1.91998007E-08
  1 541 1.91454116E-08
  1 542 1.77260623E-08
  1 543 1.69042087E-08
  1 544 1.52622860E-08
  1 545 1.40926606E-08
  1 546 1.46512914E-08
  1 547 1.81593408E-08
  1 548 2.17023379E-08
  1 549 2.00691291E-08
  1 550 1.81925196E-08
  1 551 1.60780565E-08
  1 552 1.72628256E-08
  1 553 1.83842402E-08
  1 554 1.90444516E-08
  1 555 1.91041719E-08
  1 556 1.80426536E-08
  1 557 1.88636889E-08
  1 558 1.84232265E-08
  1 559 1.59181633E-08
  1 560 1.34709184E-08
  1 561 1.15872151E-08
  1 562 1.07445727E-08
  1 563 1.11166704E-08
  1 564 1.21002028E-08
  1 565 1.44351394E-08
  1 566 1.57047168E-08
  1 567 1.76174649E-08
  1 568 1.70910011E-08
  1 569 1.54249716E-08
  1 570 1.37378182E-08
  1 571 1.31529631E-08
  1 572 1.27687460E-08
  1 573 1.21081723E-08
  1 574 1.20695971E-08
  1 575 1.28504332E-08
  1 576 1.29611641E-08
  1 577 1.37314730E-08
  1 578 1.42348342E-08
  1 579 1.47830139E-08
  1 580 1.59388090E-08
  1 581 1.45089243E-08
  1 582 1.45253697E-08
  1 583 1.66081220E-08
  1 584 1.69813276E-08
  1 585 1.74192657E-08
  1 586 1.91100137E-08
  1 587 1.97152607E-08
  1 588 2.04966113E-08
  1 589 2.02356332E-08
  1 590 1.80717940E-08
  1 591 1.63251191E-08
  1 592 1.55967341E-08
  1 593 1.55582676E-08
  1 594 1.57455013E-08
  1 595 1.48615443E-08
  1 596 1.72451914E-08
  1 597 1.88025940E-08
  1 598 1.71547323E-08
  1 599 1.64616060E-08
  1 600 1.58496902E-08
  1 601 1.40981786E-08
  1 602 1.47729450E-08
  1 603 1.59472613E-08
  1 604 1.68278451E-08
  1 605 1.64906605E-08
  1 606 1.67342326E-08
  1 607 1.64172367E-08
  1 608 1.47401374E-08
  1 609 1.36019132E-08
  1 610 1.38313310E-08
  1 611 1.56053332E-08
  1 612 1.62830065E-08
  1 613 1.84305771E-08
  1 614 2.08304990E-08
  1 615 2.17697434E-08
  1 616 2.08194916E-08
  1 617 1.80809214E-08
  1 618 1.62173731E-08
  1 619 1.55024540E-08
  1 620 1.59647866E-08
  1 621 1.81205466E-08
  1 622 1.82411186E-08
  1 623 1.79515250E-08
  1 624 1.85946666E-08
  1 625 1.97131339E-08
  1 626 1.97047163E-08
  1 627 1.66818085E-08
  1 628 1.53224345E-08
  1 629 1.48380110E-08
  1 630 1.36696823E-08
  1 631 1.30340806E-08
  1 632 1.42803323E-08
  1 633 1.44608142E-08
  1 634 1.35466566E-08
  1 635 1.55356311E-08
  1 636 1.84834675E-08
  1 637 1.90052393E-08
  1 638 1.72308538E-08
  1 639 1.69202359E-08
  1 640 1.64188668E-08
  1 641 1.46182632E-08
  1 642 1.41951336E-08
  1 643 1.47827887E-08
  1 644 1.63295309E-08
  1 645 2.07857331E-08
  1 646 2.25537716E-08
  1 647 2.04492445E-08
  1 648 1.89160460E-08
  1 649 1.88729245E-08
  1 650 1.97767901E-08
  1 651 1.93255391E-08
  1 652 1.84624938E-08
  1 653 1.73442266E-08
  1 654 1.71921851E-08
  1 655 1.72980504E-08
  1 656 1.57564607E-08
  1 657 1.30877701E-08
  1 658 1.30207763E-08
  1 659 1.20590633E-08
  1 660 1.17901931E-08
  1 661 1.35324513E-08
  1 662 1.57707029E-08
  1 663 1.59493453E-08
  1 664 1.74550076E-08
  1 665 1.70320140E-08
  1 666 1.50118672E-08
  1 667 1.32142167E-08
  1 668 1.38060985E-08
  1 669 1.34491937E-08
  1 670 1.26063083E-08
  1 671 1.21123584E-08
  1 672 1.18042800E-08
  1 673 1.22649303E-08
  1 674 1.37079914E-08
  1 675 1.41978906E-08
  1 676 1.52136585E-08
  1 677 1.50159384E-08
  1 678 1.40844387E-08
  1 679 1.39388045E-08
  1 680 1.64713293E-08
  1 681 1.81263342E-08
  1 682 1.75496446E-08
  1 683 1.90039979E-08
  1 684 2.20565452E-08
  1 685 2.26604913E-08
  1 686 2.20128079E-08
  1 687 1.83981249E-08
  1 688 1.65364111E-08
  1 689 1.52603536E-08
  1 690 1.46075410E-08
  1 691 1.47286610E-08
  1 692 1.38011259E-08
  1 693 1.50053733E-08
  1 694 1.69668634E-08
  1 695 1.72185175E-08
  1 696 1.59310907E-08
  1 697 1.46564907E-08
  1 698 1.23903156E-08
  1 699 1.11038133E-08
  1 700 1.01713789E-08
  1 701 1.58399743E-08
  1 702 1.57951346E-08
  1 703 1.71024435E-08
  1 704 1.75577176E-08
  1 705 1.65411231E-08
  1 706 1.50300148E-08
  1 707 1.50333500E-08
  1 708 1.54512985E-08
  1 709 1.59927835E-08
  1 710 1.86804872E-08
  1 711 2.11777254E-08
  1 712 2.07298025E-08
  1 713 1.88342172E-08
  1 714 1.69346098E-08
  1 715 1.58396158E-08
  1 716 1.42755193E-08
  1 717 1.42574981E-08
  1 718 1.51673475E-08
  1 719 1.55196126E-08
  1 720 1.54720987E-08
  1 721 1.72037644E-08
  1 722 1.98324779E-08
  1 723 2.02031422E-08
  1 724 1.80547556E-08
  1 725 1.53575767E-08
  1 726 1.38019971E-08
  1 727 1.31862758E-08
  1 728 1.32731959E-08
  1 729 1.39396353E-08
  1 730 1.48667025E-08
  1 731 1.56851778E-08
  1 732 1.86518141E-08
  1 733 1.93356120E-08
  1 734 1.85204157E-08
  1 735 1.68749367E-08
  1 736 1.65100177E-08
  1 737 1.53879748E-08
  1 738 1.34721744E-08
  1 739 1.32656255E-08
  1 740 1.41254659E-08
  1 741 1.48800875E-08
  1 742 1.93866835E-08
  1 743 2.38200918E-08
  1 744 2.21758609E-08
  1 745 2.02899099E-08
  1 746 2.06137412E-08
  1 747 1.98445098E-08
  1 748 1.94386466E-08
  1 749 2.03015045E-08
  1 750 1.85667782E-08
  1 751 1.77848212E-08
  1 752 1.65492087E-08
  1 753 1.44816216E-08
  1 754 1.45127282E-08
  1 755 1.53457151E-08
  1 756 1.47242772E-08
  1 757 1.37856678E-08
  1 758 1.46497710E-08
  1 759 1.61567500E-08
  1 760 1.63548794E-08
  1 761 1.66260933E-08
  1 762 1.73772325E-08
  1 763 1.55023641E-08
  1 764 1.45326941E-08
  1 765 1.51176615E-08
  1 766 1.41747767E-08
  1 767 1.28577466E-08
  1 768 1.20810117E-08
  1 769 1.14483208E-08
  1 770 1.23805297E-08
  1 771 1.46569333E-08
  1 772 1.54655672E-08
  1 773 1.47994544E-08
  1 774 1.39499405E-08
  1 775 1.48217160E-08
  1 776 1.52844102E-08
  1 777 1.74344101E-08
  1 778 1.89401822E-08
  1 779 1.84305586E-08
  1 780 1.79508102E-08
  1 781 2.06722557E-08
  1 782 2.21801559E-08
  1 783 2.05332698E-08
  1 784 1.62583339E-08
  1 785 1.46935773E-08
  1 786 1.38963944E-08
  1 787 1.40863859E-08
  1 788 1.31988498E-08
  1 789 1.23502371E-08
  1 790 1.31669948E-08
  1 791 1.52670167E-08
  1 792 1.66761353E-08
  1 793 1.69201059E-08
  1 794 1.61946797E-08
  1 795 1.41326420E-08
  1 796 1.18086692E-08
  1 797 1.11719183E-08
  1 798 1.09987782E-08
  1 799 1.08857798E-08
  1 800 1.11501821E-08
  1 801 1.74862756E-08
  1 802 1.80121596E-08
  1 803 1.79388434E-08
  1 804 1.72175858E-08
  1 805 1.68831403E-08
  1 806 1.71918629E-08
  1 807 1.88951864E-08
  1 808 1.93655754E-08
  1 809 1.86613927E-08
  1 810 1.79348674E-08
  1 811 1.67361375E-08
  1 812 1.64735140E-08
  1 813 1.40061647E-08
  1 814 1.23394436E-08
  1 815 1.28974961E-08
  1 816 1.36350668E-08
  1 817 1.35684316E-08
  1 818 1.53574947E-08
  1 819 1.81250548E-08
  1 820 2.06882699E-08
  1 821 1.90452584E-08
  1 822 1.65885808E-08
  1 823 1.55379565E-08
  1 824 1.41995842E-08
  1 825 1.42173619E-08
  1 826 1.41440113E-08
  1 827 1.54060745E-08
  1 828 1.79341549E-08
  1 829 2.01113706E-08
  1 830 1.99319175E-08
  1 831 1.88655838E-08
  1 832 1.74941527E-08
  1 833 1.67229312E-08
  1 834 1.44574252E-08
  1 835 1.37619682E-08
  1 836 1.38955309E-08
  1 837 1.34413112E-08
  1 838 1.45444989E-08
  1 839 1.85085978E-08
  1 840 2.36716592E-08
  1 841 2.15669384E-08
  1 842 1.97754491E-08
  1 843 2.07511849E-08
  1 844 2.07305092E-08
  1 845 1.92298050E-08
  1 846 1.91042047E-08
  1 847 1.84818360E-08
  1 848 1.72464035E-08
  1 849 1.53310089E-08
  1 850 1.34753778E-08
  1 851 1.43963139E-08
  1 852 1.57894870E-08
  1 853 1.46570472E-08
  1 854 1.42066197E-08
  1 855 1.40069058E-08
  1 856 1.47797537E-08
  1 857 1.59154588E-08
  1 858 1.64040562E-08
  1 859 1.78325963E-08
  1 860 1.59782999E-08
  1 861 1.57434932E-08
  1 862 1.49834395E-08
  1 863 1.39970442E-08
  1 864 1.41520059E-08
  1 865 1.38811803E-08
  1 866 1.29489255E-08
  1 867 1.38743487E-08
  1 868 1.64330038E-08
  1 869 1.68302077E-08
  1 870 1.52754343E-08
  1 871 1.40284454E-08
  1 872 1.50394938E-08
  1 873 1.60699592E-08
  1 874 1.67167144E-08
  1 875 1.85904082E-08
  1 876 1.93766743E-08
  1 877 1.87015193E-08
  1 878 1.97994294E-08
  1 879 2.04345650E-08
  1 880 1.85669568E-08
  1 881 1.46803473E-08
  1 882 1.23806488E-08
  1 883 1.28432501E-08
  1 884 1.33378303E-08
  1 885 1.29820468E-08
  1 886 1.24682516E-08
  1 887 1.28285836E-08
  1 888 1.53170475E-08
  1 889 1.77142312E-08
  1 890 1.81140109E-08
  1 891 1.80239765E-08
  1 892 1.64118408E-08
  1 893 1.39886617E-08
  1 894 1.32487315E-08
  1 895 1.17767941E-08
  1 896 1.12159064E-08
  1 897 1.04401551E-08
  1 898 1.08102182E-08
  1 899 1.11867788E-08
  1 900 1.19966990E-08
  1 901 1.84905902E-08
  1 902 1.84274345E-08
  1 903 1.74602508E-08
  1 904 1.67057360E-08
  1 905 1.70918681E-08
  1 906 1.69803492E-08
  1 907 1.58344713E-08
  1 908 1.56054045E-08
  1 909 1.69095215E-08
  1 910 1.50180303E-08
  1 911 1.19138618E-08
  1 912 1.26150123E-08
  1 913 1.32934000E-08
  1 914 1.39790278E-08
  1 915 1.52597792E-08
  1 916 1.73051664E-08
  1 917 1.81288695E-08
  1 918 1.86842373E-08
  1 919 1.79783173E-08
  1 920 1.75370451E-08
  1 921 1.65066871E-08
  1 922 1.65497573E-08
  1 923 1.76650233E-08
  1 924 1.74760232E-08
  1 925 1.79886471E-08
  1 926 2.01704855E-08
  1 927 1.88829739E-08
  1 928 1.80414529E-08
  1 929 1.68229584E-08
  1 930 1.70269551E-08
  1 931 1.51870496E-08
  1 932 1.36954214E-08
  1 933 1.35926656E-08
  1 934 1.39055737E-08
  1 935 1.52162749E-08
  1 936 1.81369977E-08
  1 937 2.13738348E-08
  1 938 2.03548719E-08
  1 939 1.87893203E-08
  1 940 1.99771571E-08
  1 941 2.20719608E-08
  1 942 2.05833341E-08
  1 943 1.77214395E-08
  1 944 1.64723203E-08
  1 945 1.62275696E-08
  1 946 1.41115997E-08
  1 947 1.28745670E-08
  1 948 1.34468724E-08
  1 949 1.39841902E-08
  1 950 1.41445122E-08
  1 951 1.46080333E-08
  1 952 1.43779573E-08
  1 953 1.49473289E-08
  1 954 1.60815616E-08
  1 955 1.68085612E-08
  1 956 1.62483556E-08
  1 957 1.51348832E-08
  1 958 1.46799431E-08
  1 959 1.38612914E-08
  1 960 1.39882962E-08
  1 961 1.51933425E-08
  1 962 1.67076071E-08
  1 963 1.58269143E-08
  1 964 1.56730421E-08
  1 965 1.77039574E-08
  1 966 1.70981543E-08
  1 967 1.51003877E-08
  1 968 1.40296713E-08
  1 969 1.46591110E-08
  1 970 1.64096602E-08
  1 971 1.67016966E-08
  1 972 1.88437492E-08
  1 973 1.96420592E-08
  1 974 1.93634120E-08
  1 975 1.95588869E-08
  1 976 1.95298616E-08
  1 977 1.73160876E-08
  1 978 1.37879589E-08
  1 979 1.17951951E-08
  1 980 1.26392065E-08
  1 981 1.26916449E-08
  1 982 1.27731765E-08
  1 983 1.31762504E-08
  1 984 1.45068999E-08
  1 985 1.64846226E-08
  1 986 1.99239975E-08
  1 987 2.04372754E-08
  1 988 1.99217681E-08
  1 989 1.80625725E-08
  1 990 1.46260123E-08
  1 991 1.31299348E-08
  1 992 1.15848676E-08
  1 993 1.04231724E-08
  1 994 9.72419419E-09
  1 995 9.90404414E-09
  1 996 1.08209149E-08
  1 997 1.14905331E-08
  1 998 1.12170508E-08
  1 999 1.08140513E-08
  1 1000 1.03174465E-08
  1 1001 1.49329199E-08
  1 1002 1.43373349E-08
  1 1003 1.58187906E-08
  1 1004 1.52542541E-08
  1 1005 1.53715213E-08
  1 1006 1.65364284E-08
  1 1007 1.53416870E-08
  1 1008 1.38163084E-08
  1 1009 1.31832639E-08
  1 1010 1.47476821E-08
  1 1011 1.61250112E-08
  1 1012 1.63414972E-08
  1 1013 1.81240403E-08
  1 1014 1.72149798E-08
  1 1015 1.70571905E-08
  1 1016 1.76252573E-08
  1 1017 1.75675876E-08
  1 1018 1.70237128E-08
  1 1019 1.74000403E-08
  1 1020 1.89193339E-08
  1 1021 1.89193339E-08
  1 1022 1.89193339E-08
  1 1023 1.89193339E-08
  1 1024 2.03211944E-08
  1 1025 1.90129177E-08
  1 1026 1.98741410E-08
  1 1027 1.90071391E-08
  1 1028 1.77655348E-08
  1 1029 1.75748571E-08
  1 1030 1.65445929E-08
  1 1031 1.58801175E-08
  1 1032 1.48754975E-08
  1 1033 1.42264235E-08
  1 1034 1.43676319E-08
  1 1035 1.57832426E-08
  1 1036 1.83972096E-08
  1 1037 2.01469705E-08
  1 1038 1.91477476E-08
  1 1039 1.73330307E-08
  1 1040 1.88171895E-08
  1 1041 2.08972284E-08
  1 1042 2.12744142E-08
  1 1043 1.75847600E-08
  1 1044 1.50965965E-08
  1 1045 1.45073306E-08
  1 1046 1.42502935E-08
  1 1047 1.32537033E-08
  1 1048 1.29481976E-08
  1 1049 1.32345407E-08
  1 1050 1.45040193E-08
  1 1051 1.63586186E-08
  1 1052 1.62536463E-08
  1 1053 1.72216972E-08
  1 1054 1.72556405E-08
  1 1055 1.66000046E-08
  1 1056 1.47130739E-08
  1 1057 1.42038721E-08
  1 1058 1.49253532E-08
  1 1059 1.44629471E-08
  1 1060 1.44077738E-08
  1 1061 1.66717233E-08
  1 1062 1.86862707E-08
  1 1063 1.92829758E-08
  1 1064 1.92829758E-08
  1 1065 1.92829758E-08
  1 1066 1.92829758E-08
  1 1067 1.72599598E-08
  1 1068 1.66532345E-08
  1 1069 1.66097523E-08
  1 1070 1.51275243E-08
  1 1071 1.40195262E-08
  1 1072 1.48548448E-08
  1 1073 1.83282304E-08
  1 1074 1.91652227E-08
  1 1075 2.05510374E-08
  1 1076 1.98581327E-08
  1 1077 1.90749258E-08
  1 1078 1.93732404E-08
  1 1079 1.90731266E-08
  1 1080 1.70282300E-08
  1 1081 1.40223613E-08
  1 1082 1.27350504E-08
  1 1083 1.18977920E-08
  1 1084 1.13758188E-08
  1 1085 1.19245178E-08
  1 1086 1.35842909E-08
  1 1087 1.53202157E-08
  1 1088 1.65390615E-08
  1 1089 1.95967576E-08
  1 1090 2.08539975E-08
  1 1091 1.96055137E-08
  1 1092 1.72373827E-08
  1 1093 1.44680032E-08
  1 1094 1.26987575E-08
  1 1095 1.28912317E-08
  1 1096 1.09744105E-08
  1 1097 9.83120094E-09
  1 1098 1.01093336E-08
  1 1099 1.11182196E-08
  1 1100 1.12634405E-08
  1 1101 1.09896786E-08
  1 1102 1.05714298E-08
  1 1103 1.03287234E-08
  1 1104 1.04013782E-08
  1 1105 1.12548201E-08
  1 1106 1.32707026E-08
  1 1107 1.52025469E-08
  1 1108 1.54803774E-08
  1 1109 1.54874875E-08
  1 1110 1.53387968E-08
  1 1111 1.57922777E-08
  1 1112 1.49867583E-08
  1 1113 1.58257669E-08
  1 1114 1.66824374E-08
  1 1115 1.62823028E-08
  1 1116 1.63471875E-08
  1 1117 1.69677716E-08
  1 1118 1.69296615E-08
  1 1119 1.73160557E-08
  1 1120 1.82566748E-08
  1 1121 1.78519932E-08
  1 1122 1.86357461E-08
  1 1123 2.10177323E-08
  1 1124 2.20588708E-08
  1 1125 2.09179400E-08
  1 1126 2.09179400E-08
  1 1127 2.09179400E-08
  1 1128 2.09179400E-08
  1 1129 1.91055461E-08
  1 1130 1.91055461E-08
  1 1131 1.91055461E-08
  1 1132 1.91055461E-08
  1 1133 1.91055461E-08
  1 1134 1.91055461E-08
  1 1135 1.91055461E-08
  1 1136 1.91055461E-08
  1 1137 1.91055461E-08
  1 1138 1.91055461E-08
  1 1139 1.91055461E-08
  1 1140 1.91055461E-08
  1 1141 1.91055461E-08
  1 1142 1.91055461E-08
  1 1143 1.91055461E-08
  1 1144 1.91055461E-08
  1 1145 1.91055461E-08
  1 1146 1.91055461E-08
  1 1147 1.91055461E-08
  1 1148 1.91055461E-08
  1 1149 1.91055461E-08
  1 1150 1.91055461E-08
  1 1151 1.91055461E-08
  1 1152 1.91055461E-08
  1 1153 1.91055461E-08
  1 1154 1.91055461E-08
  1 1155 1.91055461E-08
  1 1156 1.91055461E-08
  1 1157 1.91055461E-08
  1 1158 1.91055461E-08
  1 1159 1.91055461E-08
  1 1160 1.91055461E-08
  1 1161 1.91055461E-08
  1 1162 1.91055461E-08
  1 1163 1.91055461E-08
  1 1164 1.91055461E-08
  1 1165 1.91055461E-08
  1 1166 1.91055461E-08
  1 1167 1.91055461E-08
  1 1168 1.91055461E-08
  1 1169 1.85871739E-08
  1 1170 1.85871739E-08
  1 1171 1.85871739E-08
  1 1172 1.85871739E-08
  1 1173 1.74846916E-08
  1 1174 1.79718151E-08
  1 1175 1.51018034E-08
  1 1176 1.44066766E-08
  1 1177 1.41845925E-08
  1 1178 1.34753809E-08
  1 1179 1.36048693E-08
  1 1180 1.47973982E-08
  1 1181 1.65771478E-08
  1 1182 1.84236714E-08
  1 1183 1.69562482E-08
  1 1184 1.71528996E-08
  1 1185 1.87370650E-08
  1 1186 1.88321077E-08
  1 1187 1.87780059E-08
  1 1188 1.78632607E-08
  1 1189 1.55340122E-08
  1 1190 1.39935028E-08
  1 1191 1.43549200E-08
  1 1192 1.37850070E-08
  1 1193 1.26041519E-08
  1 1194 1.28795414E-08
  1 1195 1.42612365E-08
  1 1196 1.68707993E-08
  1 1197 1.73882026E-08
  1 1198 1.89388742E-08
  1 1199 1.88933532E-08
  1 1200 1.76163171E-08
  1 1201 1.55320924E-08
  1 1202 1.51250342E-08
  1 1203 1.60314326E-08
  1 1204 1.55102583E-08
  1 1205 1.63335251E-08
  1 1206 1.81663577E-08
  1 1207 2.02861216E-08
  1 1208 2.13200743E-08
  1 1209 2.05653005E-08
  1 1210 1.80212635E-08
  1 1211 1.80212635E-08
  1 1212 1.80212635E-08
  1 1213 1.80212635E-08
  1 1214 1.73584603E-08
  1 1215 1.73584603E-08
  1 1216 1.73584603E-08
  1 1217 1.73584603E-08
  1 1218 1.73584603E-08
  1 1219 1.73584603E-08
  1 1220 1.73584603E-08
  1 1221 1.73584603E-08
  1 1222 1.73584603E-08
  1 1223 1.73584603E-08
  1 1224 1.73584603E-08
  1 1225 1.73584603E-08
  1 1226 1.73584603E-08
  1 1227 1.73584603E-08
  1 1228 1.73584603E-08
  1 1229 1.73584603E-08
  1 1230 1.73584603E-08
  1 1231 1.73584603E-08
  1 1232 1.73584603E-08
  1 1233 1.73584603E-08
  1 1234 1.73584603E-08
  1 1235 1.73584603E-08
  1 1236 1.73584603E-08
  1 1237 1.73584603E-08
  1 1238 1.73584603E-08
  1 1239 1.73584603E-08
  1 1240 1.73584603E-08
  1 1241 1.73584603E-08
  1 1242 1.73584603E-08
  1 1243 1.73584603E-08
  1 1244 1.73584603E-08
  1 1245 1.73584603E-08
  1 1246 1.73584603E-08
  1 1247 1.73584603E-08
  1 1248 1.73584603E-08
  1 1249 1.73584603E-08
  1 1250 1.73584603E-08
  1 1251 1.73584603E-08
  1 1252 1.73584603E-08
  1 1253 1.73584603E-08
  1 1254 1.60077636E-08
  1 1255 1.60077636E-08
  1 1256 1.60077636E-08
  1 1257 1.60077636E-08
  1 1258 1.55170566E-08
  1 1259 1.71153533E-08
  1 1260 2.09876609E-08
  1 1261 2.08755017E-08
  1 1262 1.93512548E-08
  1 1263 1.85762932E-08
  1 1264 1.82054203E-08
  1 1265 1.88848101E-08
  1 1266 1.94597440E-08
  1 1267 1.75731812E-08
  1 1268 1.48189796E-08
  1 1269 1.45057165E-08
  1 1270 1.29981560E-08
  1 1271 1.17628550E-08
  1 1272 1.23477180E-08
  1 1273 1.39325194E-08
  1 1274 1.48535898E-08
  1 1275 1.70725992E-08
  1 1276 1.94387104E-08
  1 1277 1.80359837E-08
  1 1278 1.72849085E-08
  1 1279 1.47654874E-08
  1 1280 1.35119425E-08
  1 1281 1.29137546E-08
  1 1282 1.30889433E-08
  1 1283 1.31919716E-08
  1 1284 1.22503481E-08
  1 1285 1.20380803E-08
  1 1286 1.25327019E-08
  1 1287 1.26523766E-08
  1 1288 1.22306155E-08
  1 1289 1.16779034E-08