# File generated by Flopy version 3.6.0 on 07/18/2024 at 15:38:56.
BEGIN options
END options

BEGIN dimensions
  MAXBOUND  5000
END dimensions

BEGIN period  1
  1 1 7.30575730E-09
  1 2 7.56191797E-09
  1 3 7.62447447E-09
  1 4 7.47371064E-09
  1 5 7.14517991E-09
  1 6 6.85516054E-09
  1 7 6.52234665E-09
  1 8 6.31816749E-09
  1 9 6.20980736E-09
  1 10 6.13472609E-09
  1 11 6.01959190E-09
  1 12 5.92791429E-09
  1 13 5.86986565E-09
  1 14 5.88120619E-09
  1 15 5.95243930E-09
  1 16 5.95399326E-09
  1 17 6.02781633E-09
  1 18 6.11966229E-09
  1 19 6.19472602E-09
  1 20 6.32537806E-09
  1 21 6.46965786E-09
  1 22 6.58730428E-09
  1 23 6.62239603E-09
  1 24 6.56062017E-09
  1 25 6.58012745E-09
  1 26 6.56815534E-09
  1 27 6.59010687E-09
  1 28 6.59443328E-09
  1 29 6.55119414E-09
  1 30 6.52800571E-09
  1 31 6.64617154E-09
  1 32 6.76745988E-09
  1 33 6.82760853E-09
  1 34 6.79769521E-09
  1 35 6.69496336E-09
  1 36 6.55397435E-09
  1 37 6.32211185E-09
  1 38 6.12214526E-09
  1 39 5.97527240E-09
  1 40 5.85194064E-09
  1 41 5.79609765E-09
  1 42 5.76020509E-09
  1 43 5.81675116E-09
  1 44 5.92840692E-09
  1 45 6.16022486E-09
  1 46 6.45642512E-09
  1 47 6.72556585E-09
  1 48 6.98425330E-09
  1 49 7.25260485E-09
  1 50 7.49148312E-09
  1 51 7.78479369E-09
  1 52 8.11479174E-09
  1 53 8.66641345E-09
  1 54 9.05846900E-09
  1 55 9.56585104E-09
  1 56 1.00550506E-08
  1 57 1.07149434E-08
  1 58 1.13495622E-08
  1 59 1.19144959E-08
  1 60 1.24631415E-08
  1 61 1.32796954E-08
  1 62 1.42937844E-08
  1 63 1.53101065E-08
  1 64 1.63765862E-08
  1 65 1.72333393E-08
  1 66 1.76983601E-08
  1 67 1.77529461E-08
  1 68 1.72757716E-08
  1 69 1.69858081E-08
  1 70 1.68425221E-08
  1 71 1.65738501E-08
  1 72 1.63298884E-08
  1 73 1.60843510E-08
  1 74 1.60725845E-08
  1 75 1.61015794E-08
  1 76 1.60386248E-08
  1 77 1.59263885E-08
  1 78 1.57922191E-08
  1 79 1.58336065E-08
  1 80 1.56726336E-08
  1 81 1.53187343E-08
  1 82 1.49786449E-08
  1 83 1.45419930E-08
  1 84 1.40100559E-08
  1 85 1.36091908E-08
  1 86 1.36294812E-08
  1 87 1.37105496E-08
  1 88 1.37530219E-08
  1 89 1.38731425E-08
  1 90 1.38590391E-08
  1 91 1.38105656E-08
  1 92 1.36062463E-08
  1 93 1.33105796E-08
  1 94 1.28046264E-08
  1 95 1.24764347E-08
  1 96 1.23186082E-08
  1 97 1.20867123E-08
  1 98 1.18253605E-08
  1 99 1.15820911E-08
  1 100 1.15100654E-08
  1 101 7.34783232E-09
  1 102 7.59581049E-09
  1 103 7.70731340E-09
  1 104 7.61140841E-09
  1 105 7.30468340E-09
  1 106 6.96128521E-09
  1 107 6.67523367E-09
  1 108 6.40166314E-09
  1 109 6.24586470E-09
  1 110 6.17545651E-09
  1 111 6.07777594E-09
  1 112 5.98876802E-09
  1 113 5.90049864E-09
  1 114 5.89697930E-09
  1 115 5.95664908E-09
  1 116 6.02398376E-09
  1 117 6.10546024E-09
  1 118 6.24908683E-09
  1 119 6.30101410E-09
  1 120 6.40150899E-09
  1 121 6.50185567E-09
  1 122 6.65086817E-09
  1 123 6.72179407E-09
  1 124 6.65958806E-09
  1 125 6.64177081E-09
  1 126 6.63014357E-09
  1 127 6.63176108E-09
  1 128 6.66815461E-09
  1 129 6.64773902E-09
  1 130 6.58643541E-09
  1 131 6.68043502E-09
  1 132 6.82028590E-09
  1 133 6.87583938E-09
  1 134 6.84682488E-09
  1 135 6.74748913E-09
  1 136 6.63299143E-09
  1 137 6.44112012E-09
  1 138 6.22172609E-09
  1 139 6.09409165E-09
  1 140 5.92010846E-09
  1 141 5.87583646E-09
  1 142 5.85395303E-09
  1 143 5.87515509E-09
  1 144 5.95310954E-09
  1 145 6.14665503E-09
  1 146 6.43337910E-09
  1 147 6.68966294E-09
  1 148 6.99291883E-09
  1 149 7.24106145E-09
  1 150 7.47468095E-09
  1 151 7.70218484E-09
  1 152 8.04020612E-09
  1 153 8.51584773E-09
  1 154 8.94801814E-09
  1 155 9.40884751E-09
  1 156 9.91915164E-09
  1 157 1.05342004E-08
  1 158 1.11607799E-08
  1 159 1.17244202E-08
  1 160 1.22138119E-08
  1 161 1.29570522E-08
  1 162 1.38980359E-08
  1 163 1.49057554E-08
  1 164 1.60248199E-08
  1 165 1.69552612E-08
  1 166 1.74845977E-08
  1 167 1.77345446E-08
  1 168 1.74327931E-08
  1 169 1.70186378E-08
  1 170 1.68392068E-08
  1 171 1.66378034E-08
  1 172 1.62596283E-08
  1 173 1.60421162E-08
  1 174 1.59706347E-08
  1 175 1.61147192E-08
  1 176 1.62115241E-08
  1 177 1.61290866E-08
  1 178 1.60808154E-08
  1 179 1.61154281E-08
  1 180 1.58818666E-08
  1 181 1.53587852E-08
  1 182 1.49546782E-08
  1 183 1.45499163E-08
  1 184 1.41092048E-08
  1 185 1.36870000E-08
  1 186 1.35323700E-08
  1 187 1.36501078E-08
  1 188 1.36868139E-08
  1 189 1.37845538E-08
  1 190 1.37415919E-08
  1 191 1.36440551E-08
  1 192 1.34761092E-08
  1 193 1.31782034E-08
  1 194 1.28502510E-08
  1 195 1.24027687E-08
  1 196 1.22079769E-08
  1 197 1.20391388E-08
  1 198 1.18403704E-08
  1 199 1.15175943E-08
  1 200 1.13634342E-08
  1 201 7.50693290E-09
  1 202 7.66495016E-09
  1 203 7.76587125E-09
  1 204 7.75085554E-09
  1 205 7.52050824E-09
  1 206 7.12795590E-09
  1 207 6.84218214E-09
  1 208 6.53462174E-09
  1 209 6.33595721E-09
  1 210 6.23247539E-09
  1 211 6.13573376E-09
  1 212 6.05985245E-09
  1 213 5.96028672E-09
  1 214 5.91850700E-09
  1 215 5.96029913E-09
  1 216 6.08578527E-09
  1 217 6.16961899E-09
  1 218 6.31952806E-09
  1 219 6.37885758E-09
  1 220 6.46383503E-09
  1 221 6.54527680E-09
  1 222 6.68208617E-09
  1 223 6.75457034E-09
  1 224 6.72292066E-09
  1 225 6.65688711E-09
  1 226 6.61518863E-09
  1 227 6.59274391E-09
  1 228 6.61464323E-09
  1 229 6.64818322E-09
  1 230 6.56039382E-09
  1 231 6.62686919E-09
  1 232 6.74588056E-09
  1 233 6.78493007E-09
  1 234 6.75645858E-09
  1 235 6.65323279E-09
  1 236 6.59058504E-09
  1 237 6.45588866E-09
  1 238 6.20637871E-09
  1 239 6.06445541E-09
  1 240 5.93425550E-09
  1 241 5.84784252E-09
  1 242 5.83676296E-09
  1 243 5.83835861E-09
  1 244 5.89093193E-09
  1 245 6.01876281E-09
  1 246 6.28235148E-09
  1 247 6.52301948E-09
  1 248 6.82171590E-09
  1 249 7.07036785E-09
  1 250 7.29579476E-09
  1 251 7.51079508E-09
  1 252 7.77664684E-09
  1 253 8.18232418E-09
  1 254 8.66543842E-09
  1 255 9.11241803E-09
  1 256 9.61215419E-09
  1 257 1.01617066E-08
  1 258 1.07581797E-08
  1 259 1.12820257E-08
  1 260 1.17989559E-08
  1 261 1.24507686E-08
  1 262 1.32514433E-08
  1 263 1.42059823E-08
  1 264 1.53258387E-08
  1 265 1.63414405E-08
  1 266 1.69370459E-08
  1 267 1.74137664E-08
  1 268 1.73639735E-08
  1 269 1.69820938E-08
  1 270 1.66158178E-08
  1 271 1.64656892E-08
  1 272 1.60310306E-08
  1 273 1.57972380E-08
  1 274 1.57836018E-08
  1 275 1.59189561E-08
  1 276 1.61214486E-08
  1 277 1.61748577E-08
  1 278 1.61892294E-08
  1 279 1.62429544E-08
  1 280 1.60398054E-08
  1 281 1.53955662E-08
  1 282 1.48963627E-08
  1 283 1.45124931E-08
  1 284 1.41431872E-08
  1 285 1.37604017E-08
  1 286 1.35408325E-08
  1 287 1.36309423E-08
  1 288 1.36962222E-08
  1 289 1.37865221E-08
  1 290 1.37348131E-08
  1 291 1.36087019E-08
  1 292 1.34057224E-08
  1 293 1.31364354E-08
  1 294 1.28441245E-08
  1 295 1.24365123E-08
  1 296 1.22474638E-08
  1 297 1.20808061E-08
  1 298 1.19339373E-08
  1 299 1.16494771E-08
  1 300 1.13670586E-08
  1 301 7.71140269E-09
  1 302 7.84820532E-09
  1 303 7.93780169E-09
  1 304 7.94464971E-09
  1 305 7.74911526E-09
  1 306 7.36140214E-09
  1 307 7.05018232E-09
  1 308 6.75357859E-09
  1 309 6.47269028E-09
  1 310 6.34709241E-09
  1 311 6.27623696E-09
  1 312 6.21309924E-09
  1 313 6.13101372E-09
  1 314 6.04962452E-09
  1 315 6.09887710E-09
  1 316 6.24314930E-09
  1 317 6.33407046E-09
  1 318 6.43212548E-09
  1 319 6.51927027E-09
  1 320 6.59979200E-09
  1 321 6.70900212E-09
  1 322 6.83209754E-09
  1 323 6.90028769E-09
  1 324 6.85329740E-09
  1 325 6.79942359E-09
  1 326 6.72716608E-09
  1 327 6.69450583E-09
  1 328 6.69905028E-09
  1 329 6.74590294E-09
  1 330 6.66513193E-09
  1 331 6.65164631E-09
  1 332 6.75452088E-09
  1 333 6.83985410E-09
  1 334 6.79288412E-09
  1 335 6.70575788E-09
  1 336 6.62014440E-09
  1 337 6.56132049E-09
  1 338 6.33999045E-09
  1 339 6.14384699E-09
  1 340 6.05781093E-09
  1 341 5.95261270E-09
  1 342 5.93210745E-09
  1 343 5.94017768E-09
  1 344 5.98360410E-09
  1 345 6.05321459E-09
  1 346 6.28767061E-09
  1 347 6.53258139E-09
  1 348 6.77685855E-09
  1 349 7.06012212E-09
  1 350 7.28471936E-09
  1 351 7.53855782E-09
  1 352 7.72033414E-09
  1 353 8.07980805E-09
  1 354 8.52515862E-09
  1 355 8.98799134E-09
  1 356 9.49199459E-09
  1 357 1.00446726E-08
  1 358 1.06307450E-08
  1 359 1.10760811E-08
  1 360 1.15923513E-08
  1 361 1.22253028E-08
  1 362 1.29003326E-08
  1 363 1.37725249E-08
  1 364 1.48812375E-08
  1 365 1.59664197E-08
  1 366 1.66887162E-08
  1 367 1.71965556E-08
  1 368 1.73792913E-08
  1 369 1.72199648E-08
  1 370 1.67497105E-08
  1 371 1.63995372E-08
  1 372 1.61152001E-08
  1 373 1.57901768E-08
  1 374 1.57320425E-08
  1 375 1.58936303E-08
  1 376 1.61233503E-08
  1 377 1.62838861E-08
  1 378 1.63373657E-08
  1 379 1.63676030E-08
  1 380 1.63012755E-08
  1 381 1.56196347E-08
  1 382 1.50108347E-08
  1 383 1.45465814E-08
  1 384 1.42006946E-08
  1 385 1.38131331E-08
  1 386 1.35906987E-08
  1 387 1.35627942E-08
  1 388 1.37874909E-08
  1 389 1.38540764E-08
  1 390 1.37815309E-08
  1 391 1.36228229E-08
  1 392 1.34354954E-08
  1 393 1.31390094E-08
  1 394 1.28279713E-08
  1 395 1.25284713E-08
  1 396 1.22804499E-08
  1 397 1.21213770E-08
  1 398 1.19769764E-08
  1 399 1.17212057E-08
  1 400 1.14861877E-08
  1 401 7.64800300E-09
  1 402 7.78844323E-09
  1 403 7.86954189E-09
  1 404 7.85861742E-09
  1 405 7.68075168E-09
  1 406 7.34094711E-09
  1 407 6.97362831E-09
  1 408 6.70281971E-09
  1 409 6.39325064E-09
  1 410 6.23444868E-09
  1 411 6.16777475E-09
  1 412 6.12302834E-09
  1 413 6.07546835E-09
  1 414 5.95938626E-09
  1 415 6.02209972E-09
  1 416 6.14872830E-09
  1 417 6.26229807E-09
  1 418 6.32087476E-09
  1 419 6.38945587E-09
  1 420 6.44531371E-09
  1 421 6.56822109E-09
  1 422 6.70690393E-09
  1 423 6.79429960E-09
  1 424 6.74674175E-09
  1 425 6.66775242E-09
  1 426 6.58614602E-09
  1 427 6.55408337E-09
  1 428 6.54226620E-09
  1 429 6.54924998E-09
  1 430 6.50685954E-09
  1 431 6.41516957E-09
  1 432 6.48320220E-09
  1 433 6.60500275E-09
  1 434 6.56943606E-09
  1 435 6.48709947E-09
  1 436 6.41953557E-09
  1 437 6.38826353E-09
  1 438 6.26138463E-09
  1 439 6.01830936E-09
  1 440 5.94451818E-09
  1 441 5.88893263E-09
  1 442 5.82026315E-09
  1 443 5.87502480E-09
  1 444 5.90698836E-09
  1 445 5.98944703E-09
  1 446 6.13679352E-09
  1 447 6.35873191E-09
  1 448 6.58183684E-09
  1 449 6.84060834E-09
  1 450 7.09827864E-09
  1 451 7.37336250E-09
  1 452 7.55681575E-09
  1 453 7.82201580E-09
  1 454 8.18102730E-09
  1 455 8.60892689E-09
  1 456 9.11543647E-09
  1 457 9.66629756E-09
  1 458 1.02977813E-08
  1 459 1.07288116E-08
  1 460 1.11205793E-08
  1 461 1.17437075E-08
  1 462 1.23481100E-08
  1 463 1.31336341E-08
  1 464 1.41797574E-08
  1 465 1.53611451E-08
  1 466 1.61256334E-08
  1 467 1.66693473E-08
  1 468 1.69450602E-08
  1 469 1.70160634E-08
  1 470 1.66459571E-08
  1 471 1.62080731E-08
  1 472 1.59189158E-08
  1 473 1.56022399E-08
  1 474 1.54800051E-08
  1 475 1.55992082E-08
  1 476 1.58853554E-08
  1 477 1.61702081E-08
  1 478 1.61963884E-08
  1 479 1.62099578E-08
  1 480 1.62117226E-08
  1 481 1.56942629E-08
  1 482 1.50569765E-08
  1 483 1.44771402E-08
  1 484 1.41268181E-08
  1 485 1.37167558E-08
  1 486 1.34845374E-08
  1 487 1.34416508E-08
  1 488 1.36790090E-08
  1 489 1.37350875E-08
  1 490 1.37023983E-08
  1 491 1.35585026E-08
  1 492 1.34466562E-08
  1 493 1.31013613E-08
  1 494 1.27898355E-08
  1 495 1.25480465E-08
  1 496 1.22949725E-08
  1 497 1.21309353E-08
  1 498 1.18578096E-08
  1 499 1.16425990E-08
  1 500 1.14201153E-08
  1 501 7.47249158E-09
  1 502 7.60398800E-09
  1 503 7.69707439E-09
  1 504 7.73296967E-09
  1 505 7.61185227E-09
  1 506 7.27544769E-09
  1 507 6.89751271E-09
  1 508 6.62175830E-09
  1 509 6.34878554E-09
  1 510 6.10486968E-09
  1 511 6.04419273E-09
  1 512 6.00032052E-09
  1 513 5.98753008E-09
  1 514 5.88504397E-09
  1 515 5.91180626E-09
  1 516 6.04328690E-09
  1 517 6.16341540E-09
  1 518 6.22037118E-09
  1 519 6.26212482E-09
  1 520 6.29828514E-09
  1 521 6.42195808E-09
  1 522 6.57171836E-09
  1 523 6.70326612E-09
  1 524 6.70820575E-09
  1 525 6.59481236E-09
  1 526 6.52178837E-09
  1 527 6.49713230E-09
  1 528 6.48156589E-09
  1 529 6.46518570E-09
  1 530 6.40832444E-09
  1 531 6.30271518E-09
  1 532 6.31214411E-09
  1 533 6.40562632E-09
  1 534 6.43172710E-09
  1 535 6.38640416E-09
  1 536 6.30311870E-09
  1 537 6.25788196E-09
  1 538 6.21509880E-09
  1 539 5.99991592E-09
  1 540 5.89913896E-09
  1 541 5.87818425E-09
  1 542 5.84217841E-09
  1 543 5.87591128E-09
  1 544 5.93095811E-09
  1 545 6.03613430E-09
  1 546 6.14237894E-09
  1 547 6.33401004E-09
  1 548 6.56538759E-09
  1 549 6.76238052E-09
  1 550 7.04776474E-09
  1 551 7.32602075E-09
  1 552 7.56204509E-09
  1 553 7.77647945E-09
  1 554 8.05863833E-09
  1 555 8.41448006E-09
  1 556 8.89921851E-09
  1 557 9.45094623E-09
  1 558 1.00984151E-08
  1 559 1.05782823E-08
  1 560 1.09243428E-08
  1 561 1.14911229E-08
  1 562 1.20891552E-08
  1 563 1.27936255E-08
  1 564 1.37824915E-08
  1 565 1.49956410E-08
  1 566 1.59522939E-08
  1 567 1.64642471E-08
  1 568 1.68352483E-08
  1 569 1.69783605E-08
  1 570 1.68668742E-08
  1 571 1.63426972E-08
  1 572 1.60093771E-08
  1 573 1.57548093E-08
  1 574 1.55860708E-08
  1 575 1.56737589E-08
  1 576 1.60098014E-08
  1 577 1.63455427E-08
  1 578 1.64205431E-08
  1 579 1.63642789E-08
  1 580 1.63899334E-08
  1 581 1.60276959E-08
  1 582 1.54762132E-08
  1 583 1.48614225E-08
  1 584 1.43666193E-08
  1 585 1.39668397E-08
  1 586 1.37528752E-08
  1 587 1.36772568E-08
  1 588 1.38182779E-08
  1 589 1.39295419E-08
  1 590 1.38408935E-08
  1 591 1.38086073E-08
  1 592 1.36828211E-08
  1 593 1.34448391E-08
  1 594 1.29315210E-08
  1 595 1.27851990E-08
  1 596 1.25874771E-08
  1 597 1.23416827E-08
  1 598 1.19916431E-08
  1 599 1.17135678E-08
  1 600 1.15128592E-08
  1 601 7.73603465E-09
  1 602 7.87807110E-09
  1 603 7.96698191E-09
  1 604 8.07205340E-09
  1 605 7.99948423E-09
  1 606 7.64867863E-09
  1 607 7.27441536E-09
  1 608 6.94345752E-09
  1 609 6.65838958E-09
  1 610 6.41360143E-09
  1 611 6.27067861E-09
  1 612 6.22373391E-09
  1 613 6.21606578E-09
  1 614 6.12984316E-09
  1 615 6.10856207E-09
  1 616 6.19363107E-09
  1 617 6.34110032E-09
  1 618 6.42190083E-09
  1 619 6.43456391E-09
  1 620 6.43318490E-09
  1 621 6.55029926E-09
  1 622 6.69840286E-09
  1 623 6.87980162E-09
  1 624 6.90779067E-09
  1 625 6.82527731E-09
  1 626 6.70495165E-09
  1 627 6.66964558E-09
  1 628 6.70662990E-09
  1 629 6.64742225E-09
  1 630 6.55652592E-09
  1 631 6.45279178E-09
  1 632 6.39674044E-09
  1 633 6.45446958E-09
  1 634 6.48183881E-09
  1 635 6.45364102E-09
  1 636 6.40702033E-09
  1 637 6.31867257E-09
  1 638 6.28661391E-09
  1 639 6.16412787E-09
  1 640 6.02083979E-09
  1 641 5.97230570E-09
  1 642 5.97797148E-09
  1 643 5.99470899E-09
  1 644 6.06198870E-09
  1 645 6.16775624E-09
  1 646 6.27892548E-09
  1 647 6.40986979E-09
  1 648 6.66379264E-09
  1 649 6.84744734E-09
  1 650 7.04342837E-09
  1 651 7.31126247E-09
  1 652 7.60581692E-09
  1 653 7.78916458E-09
  1 654 8.06078381E-09
  1 655 8.36117759E-09
  1 656 8.73808512E-09
  1 657 9.22457071E-09
  1 658 9.87300195E-09
  1 659 1.04080131E-08
  1 660 1.07741240E-08
  1 661 1.12860178E-08
  1 662 1.18087191E-08
  1 663 1.24694099E-08
  1 664 1.33510898E-08
  1 665 1.44521103E-08
  1 666 1.54620688E-08
  1 667 1.60828347E-08
  1 668 1.65195650E-08
  1 669 1.67106402E-08
  1 670 1.67366255E-08
  1 671 1.62773127E-08
  1 672 1.59103945E-08
  1 673 1.56253404E-08
  1 674 1.55281037E-08
  1 675 1.55135885E-08
  1 676 1.57808331E-08
  1 677 1.61990607E-08
  1 678 1.63309318E-08
  1 679 1.62133395E-08
  1 680 1.61283680E-08
  1 681 1.59352570E-08
  1 682 1.54750917E-08
  1 683 1.49531599E-08
  1 684 1.43332213E-08
  1 685 1.38468939E-08
  1 686 1.36678228E-08
  1 687 1.35694521E-08
  1 688 1.36711257E-08
  1 689 1.37842430E-08
  1 690 1.36304722E-08
  1 691 1.35638520E-08
  1 692 1.34663406E-08
  1 693 1.32817062E-08
  1 694 1.28237588E-08
  1 695 1.25322448E-08
  1 696 1.23752797E-08
  1 697 1.21533545E-08
  1 698 1.17477226E-08
  1 699 1.14486491E-08
  1 700 1.12742738E-08
  1 701 7.79054060E-09
  1 702 7.93203636E-09
  1 703 8.01936302E-09
  1 704 8.11827126E-09
  1 705 8.09513774E-09
  1 706 7.80909888E-09
  1 707 7.46782369E-09
  1 708 7.06816050E-09
  1 709 6.80763684E-09
  1 710 6.56359563E-09
  1 711 6.38649263E-09
  1 712 6.30342865E-09
  1 713 6.31404271E-09
  1 714 6.21268054E-09
  1 715 6.17730043E-09
  1 716 6.20029820E-09
  1 717 6.37038707E-09
  1 718 6.47087514E-09
  1 719 6.47554880E-09
  1 720 6.48379791E-09
  1 721 6.54404616E-09
  1 722 6.68965730E-09
  1 723 6.89071385E-09
  1 724 6.95304425E-09
  1 725 6.91625179E-09
  1 726 6.81067732E-09
  1 727 6.74975429E-09
  1 728 6.76797777E-09
  1 729 6.74044009E-09
  1 730 6.60852832E-09
  1 731 6.51264433E-09
  1 732 6.43158747E-09
  1 733 6.40746971E-09
  1 734 6.45579506E-09
  1 735 6.40724592E-09
  1 736 6.39040643E-09
  1 737 6.33988192E-09
  1 738 6.31508783E-09
  1 739 6.23726137E-09
  1 740 6.07145814E-09
  1 741 5.97209659E-09
  1 742 6.01918989E-09
  1 743 6.05360056E-09
  1 744 6.10346221E-09
  1 745 6.20087658E-09
  1 746 6.32802919E-09
  1 747 6.47817425E-09
  1 748 6.66078376E-09
  1 749 6.90531210E-09
  1 750 7.06634138E-09
  1 751 7.25107153E-09
  1 752 7.56882938E-09
  1 753 7.80812052E-09
  1 754 8.05000089E-09
  1 755 8.32091124E-09
  1 756 8.63346331E-09
  1 757 9.02046569E-09
  1 758 9.59144734E-09
  1 759 1.02199282E-08
  1 760 1.06569594E-08
  1 761 1.11182952E-08
  1 762 1.16420674E-08
  1 763 1.21987597E-08
  1 764 1.29781883E-08
  1 765 1.39028928E-08
  1 766 1.49317869E-08
  1 767 1.57307110E-08
  1 768 1.63112612E-08
  1 769 1.65163276E-08
  1 770 1.66485373E-08
  1 771 1.63654846E-08
  1 772 1.59818990E-08
  1 773 1.56867460E-08
  1 774 1.56553227E-08
  1 775 1.55938528E-08
  1 776 1.57495936E-08
  1 777 1.61067319E-08
  1 778 1.64085142E-08
  1 779 1.64046212E-08
  1 780 1.62210951E-08
  1 781 1.60850175E-08
  1 782 1.57925918E-08
  1 783 1.52833807E-08
  1 784 1.46300728E-08
  1 785 1.40823121E-08
  1 786 1.38718901E-08
  1 787 1.38696489E-08
  1 788 1.39351510E-08
  1 789 1.40167680E-08
  1 790 1.38752104E-08
  1 791 1.37188134E-08
  1 792 1.36813685E-08
  1 793 1.34574120E-08
  1 794 1.30506931E-08
  1 795 1.26891084E-08
  1 796 1.24760064E-08
  1 797 1.23204725E-08
  1 798 1.19059192E-08
  1 799 1.15781939E-08
  1 800 1.14269616E-08
  1 801 7.78292524E-09
  1 802 7.95910771E-09
  1 803 7.98698780E-09
  1 804 8.06828412E-09
  1 805 8.04341120E-09
  1 806 7.84929518E-09
  1 807 7.55365219E-09
  1 808 7.16559001E-09
  1 809 6.86591479E-09
  1 810 6.62379600E-09
  1 811 6.43866524E-09
  1 812 6.31841493E-09
  1 813 6.31374701E-09
  1 814 6.21947338E-09
  1 815 6.17299669E-09
  1 816 6.11160498E-09
  1 817 6.27430496E-09
  1 818 6.41131719E-09
  1 819 6.43500260E-09
  1 820 6.42952857E-09
  1 821 6.49019212E-09
  1 822 6.59508782E-09
  1 823 6.78700197E-09
  1 824 6.85647201E-09
  1 825 6.85756696E-09
  1 826 6.79681068E-09
  1 827 6.75856589E-09
  1 828 6.69881702E-09
  1 829 6.70216393E-09
  1 830 6.58658322E-09
  1 831 6.45863095E-09
  1 832 6.36190169E-09
  1 833 6.30166466E-09
  1 834 6.28940665E-09
  1 835 6.28736947E-09
  1 836 6.25422517E-09
  1 837 6.26095479E-09
  1 838 6.23338855E-09
  1 839 6.18318144E-09
  1 840 6.03283146E-09
  1 841 5.90455874E-09
  1 842 5.93992371E-09
  1 843 5.99530227E-09
  1 844 6.01585269E-09
  1 845 6.08994784E-09
  1 846 6.24952289E-09
  1 847 6.42672057E-09
  1 848 6.61858933E-09
  1 849 6.86161852E-09
  1 850 7.01960969E-09
  1 851 7.15195724E-09
  1 852 7.42143536E-09
  1 853 7.68790023E-09
  1 854 7.99216017E-09
  1 855 8.21795027E-09
  1 856 8.49060512E-09
  1 857 8.79660525E-09
  1 858 9.26853427E-09
  1 859 9.86655001E-09
  1 860 1.03580614E-08
  1 861 1.08288743E-08
  1 862 1.13589029E-08
  1 863 1.18206731E-08
  1 864 1.25215405E-08
  1 865 1.33427139E-08
  1 866 1.42408631E-08
  1 867 1.51686888E-08
  1 868 1.57900646E-08
  1 869 1.61249563E-08
  1 870 1.62905529E-08
  1 871 1.61993544E-08
  1 872 1.58934779E-08
  1 873 1.56452603E-08
  1 874 1.56340035E-08
  1 875 1.55643541E-08
  1 876 1.56889791E-08
  1 877 1.59253198E-08
  1 878 1.62209406E-08
  1 879 1.62892414E-08
  1 880 1.62106673E-08
  1 881 1.60830659E-08
  1 882 1.58984136E-08
  1 883 1.54975091E-08
  1 884 1.48445852E-08
  1 885 1.42408945E-08
  1 886 1.39382437E-08
  1 887 1.39358720E-08
  1 888 1.40314548E-08
  1 889 1.41001391E-08
  1 890 1.39844059E-08
  1 891 1.37836863E-08
  1 892 1.37081013E-08
  1 893 1.34283783E-08
  1 894 1.30451678E-08
  1 895 1.27486990E-08
  1 896 1.24570016E-08
  1 897 1.23001270E-08
  1 898 1.20002435E-08
  1 899 1.16551287E-08
  1 900 1.14555162E-08
  1 901 7.83855737E-09
  1 902 8.03673808E-09
  1 903 8.03621866E-09
  1 904 8.13258780E-09
  1 905 8.09061946E-09
  1 906 7.92513693E-09
  1 907 7.64238423E-09
  1 908 7.31254142E-09
  1 909 7.00568141E-09
  1 910 6.68947876E-09
  1 911 6.51468250E-09
  1 912 6.39723148E-09
  1 913 6.34998254E-09
  1 914 6.25930667E-09
  1 915 6.21264236E-09
  1 916 6.12494518E-09
  1 917 6.20435852E-09
  1 918 6.37946551E-09
  1 919 6.42760021E-09
  1 920 6.45737700E-09
  1 921 6.48572803E-09
  1 922 6.56246369E-09
  1 923 6.71490526E-09
  1 924 6.81152748E-09
  1 925 6.82395378E-09
  1 926 6.82077479E-09
  1 927 6.81089803E-09
  1 928 6.72777888E-09
  1 929 6.70276508E-09
  1 930 6.62759431E-09
  1 931 6.43781703E-09
  1 932 6.32153009E-09
  1 933 6.27733211E-09
  1 934 6.22163062E-09
  1 935 6.20468914E-09
  1 936 6.19861324E-09
  1 937 6.19323574E-09
  1 938 6.23126129E-09
  1 939 6.18363934E-09
  1 940 6.05473827E-09
  1 941 5.93726047E-09
  1 942 5.91547815E-09
  1 943 5.99288423E-09
  1 944 5.98029074E-09
  1 945 6.04512099E-09
  1 946 6.19986257E-09
  1 947 6.41648849E-09
  1 948 6.62627823E-09
  1 949 6.88712143E-09
  1 950 7.03213937E-09
  1 951 7.14344248E-09
  1 952 7.33334237E-09
  1 953 7.61227622E-09
  1 954 7.96382644E-09
  1 955 8.20446844E-09
  1 956 8.47154617E-09
  1 957 8.76885058E-09
  1 958 9.14432685E-09
  1 959 9.64841974E-09
  1 960 1.01373758E-08
  1 961 1.06607963E-08
  1 962 1.11639932E-08
  1 963 1.16531543E-08
  1 964 1.22467098E-08
  1 965 1.29545027E-08
  1 966 1.37366795E-08
  1 967 1.46200296E-08
  1 968 1.53432672E-08
  1 969 1.57945148E-08
  1 970 1.59633167E-08
  1 971 1.60335469E-08
  1 972 1.58694213E-08
  1 973 1.56710594E-08
  1 974 1.56344285E-08
  1 975 1.56293506E-08
  1 976 1.56594019E-08
  1 977 1.57737820E-08
  1 978 1.60921511E-08
  1 979 1.61756909E-08
  1 980 1.61527571E-08
  1 981 1.61241490E-08
  1 982 1.59513426E-08
  1 983 1.56215986E-08
  1 984 1.50787049E-08
  1 985 1.43710794E-08
  1 986 1.40189666E-08
  1 987 1.38430518E-08
  1 988 1.39956225E-08
  1 989 1.41444432E-08
  1 990 1.39792312E-08
  1 991 1.37432296E-08
  1 992 1.35731460E-08
  1 993 1.32607178E-08
  1 994 1.28825875E-08
  1 995 1.26727641E-08
  1 996 1.24351710E-08
  1 997 1.21785407E-08
  1 998 1.19333372E-08
  1 999 1.16346840E-08
  1 1000 1.13282486E-08
  1 1001 7.79017433E-09
  1 1002 7.93761067E-09
  1 1003 7.97312232E-09
  1 1004 8.02396173E-09
  1 1005 7.99477064E-09
  1 1006 7.84797518E-09
  1 1007 7.60938895E-09
  1 1008 7.29360740E-09
  1 1009 7.00343004E-09
  1 1010 6.66773907E-09
  1 1011 6.44016363E-09
  1 1012 6.29038165E-09
  1 1013 6.23875018E-09
  1 1014 6.12381567E-09
  1 1015 6.07663732E-09
  1 1016 6.00043332E-09
  1 1017 5.99799808E-09
  1 1018 6.13111002E-09
  1 1019 6.19442596E-09
  1 1020 6.29745951E-09
  1 1021 6.30531053E-09
  1 1022 6.39271866E-09
  1 1023 6.49696566E-09
  1 1024 6.58996743E-09
  1 1025 6.58727424E-09
  1 1026 6.60205985E-09
  1 1027 6.66032219E-09
  1 1028 6.60118567E-09
  1 1029 6.52360676E-09
  1 1030 6.42232097E-09
  1 1031 6.24450521E-09
  1 1032 6.12130697E-09
  1 1033 6.04179236E-09
  1 1034 5.98999661E-09
  1 1035 5.94513084E-09
  1 1036 5.93099490E-09
  1 1037 5.95395376E-09
  1 1038 6.00296604E-09
  1 1039 5.99440133E-09
  1 1040 5.88852653E-09
  1 1041 5.78158653E-09
  1 1042 5.72820863E-09
  1 1043 5.78621794E-09
  1 1044 5.77904385E-09
  1 1045 5.82875035E-09
  1 1046 5.95641391E-09
  1 1047 6.18611892E-09
  1 1048 6.41166523E-09
  1 1049 6.66893319E-09
  1 1050 6.82957686E-09
  1 1051 6.91476979E-09
  1 1052 7.04821755E-09
  1 1053 7.27923616E-09
  1 1054 7.64050628E-09
  1 1055 7.94983097E-09
  1 1056 8.20192716E-09
  1 1057 8.45607386E-09
  1 1058 8.81333867E-09
  1 1059 9.19656909E-09
  1 1060 9.67921889E-09
  1 1061 1.01928637E-08
  1 1062 1.06811015E-08
  1 1063 1.11887447E-08
  1 1064 1.17058567E-08
  1 1065 1.23095200E-08
  1 1066 1.29517789E-08
  1 1067 1.37409018E-08
  1 1068 1.44180219E-08
  1 1069 1.49658876E-08
  1 1070 1.52605354E-08
  1 1071 1.53334062E-08
  1 1072 1.53081177E-08
  1 1073 1.52736241E-08
  1 1074 1.51485443E-08
  1 1075 1.52313314E-08
  1 1076 1.53127365E-08
  1 1077 1.52790096E-08
  1 1078 1.56097561E-08
  1 1079 1.57255672E-08
  1 1080 1.57700121E-08
  1 1081 1.57707214E-08
  1 1082 1.56817727E-08
  1 1083 1.53718567E-08
  1 1084 1.50073035E-08
  1 1085 1.42983107E-08
  1 1086 1.37949370E-08
  1 1087 1.35031359E-08
  1 1088 1.35839645E-08
  1 1089 1.37785529E-08
  1 1090 1.36902628E-08
  1 1091 1.34960615E-08
  1 1092 1.32895394E-08
  1 1093 1.29608701E-08
  1 1094 1.25861730E-08
  1 1095 1.23886288E-08
  1 1096 1.21799013E-08
  1 1097 1.18676737E-08
  1 1098 1.16102224E-08
  1 1099 1.13632004E-08
  1 1100 1.10486878E-08
  1 1101 7.77579870E-09
  1 1102 7.84441333E-09
  1 1103 7.90561087E-09
  1 1104 7.95070434E-09
  1 1105 7.91588185E-09
  1 1106 7.77322114E-09
  1 1107 7.61674037E-09
  1 1108 7.33344481E-09
  1 1109 7.03739846E-09
  1 1110 6.70333894E-09
  1 1111 6.44454729E-09
  1 1112 6.30459022E-09
  1 1113 6.18603857E-09
  1 1114 6.08507080E-09
  1 1115 6.04034591E-09
  1 1116 5.96224413E-09
  1 1117 5.92068335E-09
  1 1118 6.01281454E-09
  1 1119 6.09705561E-09
  1 1120 6.21883162E-09
  1 1121 6.28066635E-09
  1 1122 6.37850861E-09
  1 1123 6.44830186E-09
  1 1124 6.52597951E-09
  1 1125 6.55851095E-09
  1 1126 6.55739369E-09
  1 1127 6.65566333E-09
  1 1128 6.66997295E-09
  1 1129 6.59379050E-09
  1 1130 6.46410417E-09
  1 1131 6.28389949E-09
  1 1132 6.12328191E-09
  1 1133 6.01515019E-09
  1 1134 5.97225817E-09
  1 1135 5.92739658E-09
  1 1136 5.89635884E-09
  1 1137 5.93423484E-09
  1 1138 6.00056468E-09
  1 1139 6.01642611E-09
  1 1140 5.93886481E-09
  1 1141 5.84818590E-09
  1 1142 5.81698862E-09
  1 1143 5.82047740E-09
  1 1144 5.82819789E-09
  1 1145 5.87279879E-09
  1 1146 5.97359841E-09
  1 1147 6.16394985E-09
  1 1148 6.43846799E-09
  1 1149 6.67646943E-09
  1 1150 6.89225246E-09
  1 1151 6.96703041E-09
  1 1152 7.04377864E-09
  1 1153 7.21859014E-09
  1 1154 7.59842573E-09
  1 1155 7.96729249E-09
  1 1156 8.24659130E-09
  1 1157 8.48638911E-09
  1 1158 8.82756166E-09
  1 1159 9.17156121E-09
  1 1160 9.61964104E-09
  1 1161 1.01270493E-08
  1 1162 1.06348032E-08
  1 1163 1.11854862E-08
  1 1164 1.16685414E-08
  1 1165 1.21736153E-08
  1 1166 1.27103976E-08
  1 1167 1.33587258E-08
  1 1168 1.40224031E-08
  1 1169 1.45653861E-08
  1 1170 1.49709752E-08
  1 1171 1.51330582E-08
  1 1172 1.51831064E-08
  1 1173 1.51923660E-08
  1 1174 1.50837343E-08
  1 1175 1.51273183E-08
  1 1176 1.53008847E-08
  1 1177 1.52719796E-08
  1 1178 1.55027536E-08
  1 1179 1.57077669E-08
  1 1180 1.58251192E-08
  1 1181 1.58651568E-08
  1 1182 1.57609039E-08
  1 1183 1.56167899E-08
  1 1184 1.52610038E-08
  1 1185 1.45867018E-08
  1 1186 1.39390251E-08
  1 1187 1.35663798E-08
  1 1188 1.34658082E-08
  1 1189 1.36554499E-08
  1 1190 1.37232820E-08
  1 1191 1.35689713E-08
  1 1192 1.33522160E-08
  1 1193 1.31156182E-08
  1 1194 1.26807679E-08
  1 1195 1.24497459E-08
  1 1196 1.22577309E-08
  1 1197 1.19116534E-08
  1 1198 1.15766794E-08
  1 1199 1.13364901E-08
  1 1200 1.11029323E-08
  1 1201 8.01249539E-09
  1 1202 7.97297153E-09
  1 1203 8.06394966E-09
  1 1204 8.12446436E-09
  1 1205 8.07949482E-09
  1 1206 7.95040249E-09
  1 1207 7.76782191E-09
  1 1208 7.57733211E-09
  1 1209 7.28968008E-09
  1 1210 6.91924020E-09
  1 1211 6.62045792E-09
  1 1212 6.48530581E-09
  1 1213 6.36936238E-09
  1 1214 6.25649421E-09
  1 1215 6.16528162E-09
  1 1216 6.10679803E-09
  1 1217 6.00767271E-09
  1 1218 6.06345041E-09
  1 1219 6.11816537E-09
  1 1220 6.25825613E-09
  1 1221 6.34122815E-09
  1 1222 6.47738196E-09
  1 1223 6.52932401E-09
  1 1224 6.62142995E-09
  1 1225 6.64206737E-09
  1 1226 6.65433506E-09
  1 1227 6.71697196E-09
  1 1228 6.77712818E-09
  1 1229 6.70348182E-09
  1 1230 6.58660603E-09
  1 1231 6.41323570E-09
  1 1232 6.20731740E-09
  1 1233 6.04698934E-09
  1 1234 6.00194394E-09
  1 1235 5.95637208E-09
  1 1236 5.89507829E-09
  1 1237 5.94960341E-09
  1 1238 6.01517385E-09
  1 1239 6.03405011E-09
  1 1240 5.99845852E-09
  1 1241 5.90656961E-09
  1 1242 5.88405065E-09
  1 1243 5.85773810E-09
  1 1244 5.85109799E-09
  1 1245 5.85981396E-09
  1 1246 5.97033342E-09
  1 1247 6.09445809E-09
  1 1248 6.37563749E-09
  1 1249 6.64528828E-09
  1 1250 6.86133824E-09
  1 1251 6.95643968E-09
  1 1252 6.98970642E-09
  1 1253 7.16017948E-09
  1 1254 7.49613353E-09
  1 1255 7.89741788E-09
  1 1256 8.23299529E-09
  1 1257 8.45546465E-09
  1 1258 8.75094119E-09
  1 1259 9.11299653E-09
  1 1260 9.53921600E-09
  1 1261 1.00183856E-08
  1 1262 1.05264137E-08
  1 1263 1.10957915E-08
  1 1264 1.15589174E-08
  1 1265 1.19362241E-08
  1 1266 1.24420409E-08
  1 1267 1.30241999E-08
  1 1268 1.36197685E-08
  1 1269 1.40710260E-08
  1 1270 1.45623125E-08
  1 1271 1.47566574E-08
  1 1272 1.49209883E-08
  1 1273 1.49010769E-08
  1 1274 1.48888353E-08
  1 1275 1.48509250E-08
  1 1276 1.50347293E-08
  1 1277 1.50603100E-08
  1 1278 1.52974727E-08
  1 1279 1.56464567E-08
  1 1280 1.57996327E-08
  1 1281 1.58710730E-08
  1 1282 1.57596444E-08
  1 1283 1.57670319E-08
  1 1284 1.54009273E-08
  1 1285 1.49054276E-08
  1 1286 1.41918898E-08
  1 1287 1.36385685E-08
  1 1288 1.34069488E-08
  1 1289 1.34883856E-08