# File generated by Flopy version 3.6.0 on 11/07/2024 at 09:09:40.
BEGIN options
  SAVE_FLOWS
END options

BEGIN griddata
  iconvert
    CONSTANT  1
  ss
    CONSTANT       0.00100000
  sy
    CONSTANT       0.20000000
END griddata

BEGIN period  1
  STEADY-STATE
END period  1

