# File generated by Flopy version 3.6.0 on 10/31/2024 at 14:01:15.
BEGIN options
END options

BEGIN griddata
  icelltype
    CONSTANT  0
  k
    INTERNAL  FACTOR  1.0
    2.22675122E-04  2.68025627E-04  3.59031179E-04  4.37507578E-04  5.00348731E-04  6.56108399E-04  8.68006754E-04       0.00105760       0.00122537       0.00153614       0.00171671       0.00198033       0.00245972       0.00313005       0.00395909       0.00482122       0.00603815       0.00660196       0.00713010       0.00844405
         0.00945884       0.00900344       0.00681519       0.00485549       0.00352176       0.00273449       0.00199202       0.00134243  9.81417840E-04  8.64302508E-04  7.05549805E-04  6.02101392E-04  5.21983969E-04  4.72022156E-04  4.10398851E-04  3.91890873E-04  3.87676983E-04  4.28344025E-04  4.52174708E-04  4.20340633E-04
    4.07221606E-04  4.14944387E-04  3.70880818E-04  3.29798437E-04  2.83544857E-04  2.38071462E-04  2.04086819E-04  1.39210020E-04  9.91863523E-05  7.98876074E-05  6.04143852E-05  4.60172545E-05  4.03279028E-05  3.63467848E-05  3.23557231E-05  3.45231565E-05  3.46668196E-05  4.14182221E-05  4.80526143E-05  5.15613369E-05
    5.88081101E-05  7.36312951E-05  9.78519125E-05  1.37830435E-04  1.87862998E-04  2.47167877E-04  3.32888776E-04  4.17481993E-04  5.15517828E-04  5.34858112E-04  4.76934415E-04  3.88650395E-04  3.22425696E-04  2.73755514E-04  2.45812802E-04  2.13633325E-04  1.77813541E-04  1.62600337E-04  1.80416266E-04  2.04324126E-04
    2.26410656E-04  2.16431910E-04  1.98657051E-04  1.90905121E-04  1.78605274E-04  1.58301157E-04  1.35802972E-04  1.30685206E-04  1.57622332E-04  1.81941742E-04  1.75273953E-04  1.63180512E-04  1.58996750E-04  1.53466928E-04  1.30281157E-04  9.68929973E-05  7.13462640E-05  5.73665388E-05  5.13284559E-05  4.43285204E-05
    2.27296412E-04  2.93462951E-04  3.91759135E-04  4.91638007E-04  6.11296166E-04  7.87789396E-04  9.45970941E-04       0.00107316       0.00125434       0.00146873       0.00169481       0.00195487       0.00241888       0.00320185       0.00406776       0.00499905       0.00628331       0.00728999       0.00786001       0.00899657
         0.00975122       0.00921463       0.00754772       0.00535332       0.00384985       0.00298077       0.00220644       0.00146926  9.73159835E-04  7.83689118E-04  6.69483381E-04  5.65603870E-04  4.91387561E-04  4.38838704E-04  3.98702596E-04  3.77938920E-04  3.53978271E-04  3.74912975E-04  4.14468718E-04  4.22263534E-04
    3.75452936E-04  3.78034853E-04  3.45296084E-04  3.12556651E-04  2.77680602E-04  2.59390953E-04  2.25140645E-04  1.61391887E-04  1.09077805E-04  8.27450114E-05  6.35911328E-05  4.64036294E-05  3.94104760E-05  3.69393189E-05  3.26992513E-05  3.37890776E-05  3.21993822E-05  3.60965452E-05  4.24767607E-05  5.05025473E-05
    5.64163064E-05  6.58778013E-05  8.56889917E-05  1.19714916E-04  1.58043150E-04  2.04346963E-04  2.58955894E-04  3.33032714E-04  4.11701579E-04  4.71638270E-04  4.46908562E-04  3.84830968E-04  3.12565657E-04  2.76003100E-04  2.39792737E-04  2.03244821E-04  1.76866056E-04  1.59155431E-04  1.67799300E-04  1.98266804E-04
    2.18863329E-04  2.00704468E-04  1.91893970E-04  1.85300515E-04  1.77977749E-04  1.66520087E-04  1.52516956E-04  1.47385153E-04  1.67899401E-04  1.83977138E-04  1.73024501E-04  1.62257916E-04  1.50063999E-04  1.57908758E-04  1.45286514E-04  1.14008837E-04  7.81981951E-05  6.02113370E-05  5.03113032E-05  4.72828382E-05
    2.47486125E-04  3.20656885E-04  4.43165027E-04  5.75413190E-04  6.97960883E-04  8.73770690E-04       0.00102016       0.00109615       0.00124845       0.00136927       0.00168650       0.00198407       0.00230965       0.00299169       0.00401976       0.00525065       0.00644958       0.00763256       0.00907632       0.00986606
         0.00999276       0.00998033       0.00856969       0.00629775       0.00439068       0.00343562       0.00252152       0.00164259       0.00106827  7.68274070E-04  6.28792142E-04  5.20221636E-04  4.47022208E-04  3.96837889E-04  3.79272713E-04  3.47185550E-04  3.45197783E-04  3.40848137E-04  3.84077077E-04  4.02202102E-04
    3.68604096E-04  3.58056934E-04  3.23917236E-04  2.89204566E-04  2.62549694E-04  2.57931827E-04  2.37671760E-04  1.86069436E-04  1.22747129E-04  8.84641066E-05  6.68510084E-05  4.88938758E-05  3.89139224E-05  3.44850321E-05  3.21570210E-05  3.13177983E-05  3.22136150E-05  3.24152189E-05  3.90180471E-05  4.87022157E-05
    5.63734477E-05  6.36685060E-05  7.60438330E-05  1.03794269E-04  1.36179852E-04  1.70763437E-04  2.24905510E-04  2.76253139E-04  3.44000641E-04  4.10257755E-04  4.10945609E-04  3.58505212E-04  2.97108786E-04  2.62233905E-04  2.23145477E-04  1.91335786E-04  1.71017464E-04  1.55351907E-04  1.63208658E-04  1.84592366E-04
    2.05890914E-04  1.92750373E-04  1.78028330E-04  1.75377576E-04  1.73075347E-04  1.78793975E-04  1.64685239E-04  1.61268464E-04  1.80915274E-04  1.97150556E-04  1.81008935E-04  1.61651021E-04  1.44380603E-04  1.42640658E-04  1.46983956E-04  1.20980546E-04  8.40731907E-05  6.18363392E-05  4.76157471E-05  4.30844209E-05
    2.68965503E-04  3.44379598E-04  4.77711443E-04  6.34255630E-04  7.85312081E-04  9.17003355E-04       0.00105896       0.00111176       0.00117577       0.00130223       0.00152242       0.00187327       0.00210261       0.00270523       0.00368194       0.00500987       0.00644256       0.00785269       0.00934904       0.01078411
         0.01048226       0.01068090       0.00937543       0.00696331       0.00508752       0.00385761       0.00273809       0.00173312       0.00115932  7.61135048E-04  5.94917855E-04  4.94176718E-04  4.34149900E-04  3.63871362E-04  3.43237676E-04  3.45329919E-04  3.32048672E-04  3.34029605E-04  3.56771378E-04  3.93884163E-04
    3.90760798E-04  3.54032731E-04  3.08580961E-04  2.70612905E-04  2.30053817E-04  2.29921477E-04  2.25857379E-04  1.97464468E-04  1.36050690E-04  9.75066894E-05  7.33071566E-05  5.37977239E-05  4.13758728E-05  3.48891934E-05  3.18977499E-05  2.98005740E-05  3.10695388E-05  3.18211145E-05  3.64919450E-05  4.80197722E-05
    5.64092364E-05  5.92203884E-05  6.44299932E-05  8.30802585E-05  1.17988064E-04  1.46113593E-04  1.94357394E-04  2.32681245E-04  2.77970428E-04  3.25591348E-04  3.50981254E-04  3.10188527E-04  2.75914364E-04  2.30550989E-04  2.12927308E-04  1.83802344E-04  1.71851653E-04  1.54260789E-04  1.58304431E-04  1.67435869E-04
    1.88694997E-04  1.90450064E-04  1.73036219E-04  1.66811643E-04  1.70858009E-04  1.78952749E-04  1.82402968E-04  1.80619966E-04  1.92945395E-04  2.15435988E-04  1.97811059E-04  1.71798220E-04  1.57307629E-04  1.41407957E-04  1.39893310E-04  1.23943749E-04  9.29061999E-05  6.16016675E-05  4.71970430E-05  3.89619274E-05
    3.03696021E-04  3.87514590E-04  5.35856286E-04  7.15246793E-04  8.33915938E-04  9.86967528E-04       0.00113572       0.00122204       0.00116654       0.00124868       0.00143849       0.00177849       0.00186925       0.00244613       0.00342547       0.00482747       0.00653900       0.00770301       0.00887734       0.01048192
         0.01112571       0.01053159       0.00897926       0.00715739       0.00540793       0.00411574       0.00287293       0.00172083       0.00116389  7.29360780E-04  5.33521781E-04  4.50517875E-04  4.04237454E-04  3.52289704E-04  3.25631711E-04  3.16188144E-04  3.15927574E-04  3.21956467E-04  3.17990380E-04  3.71386466E-04
    3.66075823E-04  3.26128997E-04  2.78517906E-04  2.32887497E-04  1.91118085E-04  1.76384131E-04  1.84682850E-04  1.77108352E-04  1.41542582E-04  1.02206526E-04  7.49147470E-05  5.81834772E-05  4.21570495E-05  3.51651878E-05  2.96090666E-05  2.83024649E-05  2.86242970E-05  2.99704091E-05  3.23972663E-05  4.16225342E-05
    4.87127439E-05  5.15638920E-05  5.11593979E-05  6.22951586E-05  8.85648826E-05  1.16715089E-04  1.49974600E-04  1.87775335E-04  2.14408535E-04  2.44898259E-04  2.68382112E-04  2.56313321E-04  2.31509335E-04  1.85838883E-04  1.73438030E-04  1.65425277E-04  1.53393331E-04  1.40392986E-04  1.47678184E-04  1.48212874E-04
    1.62771752E-04  1.72497662E-04  1.73595295E-04  1.61544260E-04  1.63566542E-04  1.73364753E-04  1.93855901E-04  1.97674496E-04  1.93010721E-04  2.13838789E-04  2.15554069E-04  1.84931599E-04  1.63087383E-04  1.46000050E-04  1.43931576E-04  1.23676277E-04  9.80145640E-05  6.44491142E-05  4.74055956E-05  3.77031309E-05
    3.06540293E-04  4.27190845E-04  5.62976765E-04  7.59992376E-04  8.38792482E-04  9.99139926E-04       0.00117362       0.00121916       0.00114930       0.00114461       0.00129975       0.00162326       0.00179651       0.00217458       0.00304827       0.00424851       0.00613589       0.00810452       0.00867262       0.00937365
         0.01060702       0.01077123       0.00881007       0.00719133       0.00538222       0.00408306       0.00298056       0.00184452       0.00114836  7.32946530E-04  4.98365974E-04  4.15266406E-04  3.83104554E-04  3.42839041E-04  3.36402678E-04  3.31145369E-04  3.24283768E-04  3.23751451E-04  3.33656267E-04  3.61481405E-04
    3.56941844E-04  3.28234337E-04  2.62085039E-04  2.16478171E-04  1.82842859E-04  1.65069863E-04  1.60281684E-04  1.53361340E-04  1.45010626E-04  1.23518335E-04  9.26806641E-05  6.89838393E-05  5.19657938E-05  4.12582535E-05  3.29700402E-05  3.09481498E-05  3.13830582E-05  3.19683431E-05  3.27833276E-05  3.89261611E-05
    4.69627909E-05  4.83436862E-05  4.80747534E-05  5.63790949E-05  7.70552182E-05  1.06315712E-04  1.38831214E-04  1.71349463E-04  1.88600847E-04  2.16982416E-04  2.47038085E-04  2.47019591E-04  2.10145502E-04  1.65340368E-04  1.43028074E-04  1.39261215E-04  1.39125021E-04  1.33087106E-04  1.42240574E-04  1.46756387E-04
    1.49383423E-04  1.62497766E-04  1.71049863E-04  1.67045046E-04  1.66143888E-04  1.80957260E-04  1.91584803E-04  2.01196671E-04  2.15782591E-04  2.11564135E-04  2.15586331E-04  2.01519859E-04  1.77125671E-04  1.56940298E-04  1.53071012E-04  1.26929512E-04  9.96520638E-05  6.92313235E-05  5.24188992E-05  3.86750008E-05
    3.10966431E-04  4.45905716E-04  5.66043482E-04  7.68204832E-04  8.23438315E-04  9.05283241E-04       0.00109787       0.00113482       0.00109157       0.00105915       0.00117936       0.00143789       0.00175184       0.00204184       0.00270707       0.00383261       0.00556345       0.00733584       0.00775528       0.00788800
         0.00932652       0.00973905       0.00887465       0.00693438       0.00534548       0.00402202       0.00286377       0.00191412       0.00123380  7.08851090E-04  4.58527999E-04  3.70432659E-04  3.13083467E-04  2.95169439E-04  3.02163026E-04  3.06236448E-04  3.03588942E-04  3.11057766E-04  3.15472868E-04  3.28086886E-04
    3.18121665E-04  2.98352377E-04  2.36088729E-04  1.83773331E-04  1.58055685E-04  1.46099351E-04  1.41356711E-04  1.36767687E-04  1.30337439E-04  1.22250099E-04  1.03373308E-04  8.09624329E-05  5.91492194E-05  4.39887326E-05  3.49075415E-05  3.07754395E-05  3.19954271E-05  3.33614306E-05  3.22960872E-05  3.43684341E-05
    4.23429262E-05  4.30654221E-05  4.34816272E-05  5.06457073E-05  6.58104182E-05  8.52960071E-05  1.16585602E-04  1.51357332E-04  1.64757176E-04  1.85879795E-04  2.06906665E-04  2.12096775E-04  1.87027399E-04  1.45977012E-04  1.15724826E-04  1.08292577E-04  1.09646455E-04  1.14100462E-04  1.20522920E-04  1.29104793E-04
    1.31647218E-04  1.44618745E-04  1.56392065E-04  1.62127181E-04  1.59981426E-04  1.77968839E-04  1.81582751E-04  1.86969361E-04  2.05751392E-04  2.12672859E-04  2.01742119E-04  1.92991110E-04  1.79272331E-04  1.57494006E-04  1.44175205E-04  1.26505587E-04  1.01483749E-04  7.60560474E-05  5.76779288E-05  3.94522700E-05
    3.10677056E-04  4.37561098E-04  5.65207734E-04  7.03784720E-04  8.22351864E-04  8.90025806E-04       0.00103832       0.00113017       0.00105446  9.97733797E-04       0.00109699       0.00134400       0.00168076       0.00205845       0.00261569       0.00357600       0.00485954       0.00645260       0.00741477       0.00723017
         0.00777150       0.00875699       0.00821025       0.00637210       0.00485400       0.00388309       0.00290965       0.00193217       0.00125993  7.78341021E-04  4.80098674E-04  3.56728472E-04  2.77873740E-04  2.57764374E-04  2.62056531E-04  2.65138612E-04  2.73353560E-04  2.97667713E-04  2.99602741E-04  2.88957993E-04
    2.91225055E-04  2.67161365E-04  2.18006702E-04  1.66183060E-04  1.36678312E-04  1.29149848E-04  1.29732259E-04  1.19488196E-04  1.16704530E-04  1.12357613E-04  1.03002795E-04  9.32529273E-05  6.96252667E-05  5.19678006E-05  4.07550490E-05  3.24943084E-05  3.19502814E-05  3.27898189E-05  3.28239960E-05  3.38628765E-05
    3.77292839E-05  4.20147561E-05  4.32839037E-05  4.66043882E-05  5.57495741E-05  6.69025896E-05  8.86778672E-05  1.19795815E-04  1.45755882E-04  1.62782265E-04  1.81558067E-04  1.88308687E-04  1.64256463E-04  1.29822683E-04  1.02811945E-04  9.20268965E-05  9.78719724E-05  1.00166117E-04  1.06049891E-04  1.18195518E-04
    1.21292290E-04  1.30466403E-04  1.39233415E-04  1.47490024E-04  1.55559753E-04  1.69455476E-04  1.85582160E-04  1.80517816E-04  1.89843902E-04  2.03310898E-04  1.90527293E-04  1.74443299E-04  1.66393209E-04  1.55602729E-04  1.38276057E-04  1.28922277E-04  1.00482808E-04  8.20597790E-05  6.12130792E-05  4.46416898E-05
    3.06553169E-04  4.15789043E-04  5.30961765E-04  6.47988135E-04  7.66966180E-04  8.97916585E-04  9.84316386E-04       0.00105745       0.00101310  9.77214199E-04       0.00104919       0.00130664       0.00163188       0.00210150       0.00247923       0.00341550       0.00440261       0.00544216       0.00656940       0.00672498
         0.00687311       0.00792128       0.00790262       0.00588534       0.00444012       0.00362648       0.00290901       0.00202846       0.00136528  8.52670387E-04  5.31116463E-04  3.66352259E-04  2.78341947E-04  2.58889918E-04  2.44192225E-04  2.37010965E-04  2.43720200E-04  2.72739043E-04  2.74528964E-04  2.63081533E-04
    2.66647633E-04  2.44344426E-04  2.04288912E-04  1.58575677E-04  1.25705602E-04  1.15923081E-04  1.16518236E-04  1.12575071E-04  1.04868692E-04  1.07765629E-04  1.02121965E-04  9.73066525E-05  7.88542022E-05  6.05130763E-05  4.87946502E-05  3.80537482E-05  3.40191446E-05  3.24044965E-05  3.19995084E-05  3.31348581E-05
    3.60409619E-05  4.16882826E-05  4.29961477E-05  4.53494898E-05  5.17262779E-05  5.69443136E-05  7.09029129E-05  8.96579764E-05  1.27526248E-04  1.52189247E-04  1.71339183E-04  1.73013771E-04  1.54208345E-04  1.16236518E-04  9.34198934E-05  8.47615520E-05  8.93269173E-05  9.60189481E-05  1.00920826E-04  1.08243691E-04
    1.16204825E-04  1.17348428E-04  1.25309732E-04  1.34739994E-04  1.49955267E-04  1.65560489E-04  1.83637303E-04  1.79812019E-04  1.73184881E-04  1.85946425E-04  1.75718754E-04  1.65985920E-04  1.50037833E-04  1.37370668E-04  1.30496642E-04  1.28245223E-04  1.04149160E-04  8.11790303E-05  6.50486962E-05  4.78138557E-05
    3.12800099E-04  4.02019107E-04  5.23568489E-04  6.26820302E-04  7.36564641E-04  8.63722228E-04  9.54370954E-04  9.12427124E-04  9.84759531E-04       0.00102373       0.00109277       0.00129582       0.00163954       0.00203781       0.00246371       0.00311290       0.00391880       0.00433282       0.00549011       0.00604136
         0.00598164       0.00656691       0.00696807       0.00577794       0.00436127       0.00334534       0.00290315       0.00214374       0.00156103  9.70975434E-04  5.97337301E-04  3.87289614E-04  2.80669513E-04  2.54536208E-04  2.45271074E-04  2.30409797E-04  2.22405493E-04  2.49296021E-04  2.43473256E-04  2.31784770E-04
    2.30442728E-04  2.30354178E-04  1.90988773E-04  1.54869801E-04  1.26901144E-04  1.09109187E-04  1.03750587E-04  1.06672157E-04  1.00138462E-04  1.02003983E-04  1.01448870E-04  9.73891197E-05  8.76821008E-05  7.16936186E-05  5.85967819E-05  4.59942324E-05  3.70869940E-05  3.14861941E-05  3.04760078E-05  3.16454259E-05
    3.32086286E-05  3.78983505E-05  4.22542868E-05  4.22095530E-05  4.64856011E-05  4.91018449E-05  5.99689534E-05  7.00825392E-05  9.94162298E-05  1.29598784E-04  1.59000552E-04  1.61369446E-04  1.50311977E-04  1.17511845E-04  9.33080713E-05  7.88025461E-05  8.40379854E-05  9.46504112E-05  9.88186004E-05  1.05291045E-04
    1.19908501E-04  1.17511417E-04  1.20252695E-04  1.33094518E-04  1.47917599E-04  1.61476014E-04  1.74864894E-04  1.78375526E-04  1.68420422E-04  1.77536114E-04  1.64110287E-04  1.50884738E-04  1.37422257E-04  1.22126012E-04  1.18620338E-04  1.25753555E-04  1.11183703E-04  8.33268283E-05  6.61036492E-05  4.87859139E-05
    3.18140088E-04  3.89479272E-04  4.92451840E-04  6.20699904E-04  7.13793568E-04  8.02128474E-04  9.18675978E-04  8.85573935E-04  9.05402769E-04       0.00100061       0.00114229       0.00122694       0.00165273       0.00191076       0.00234795       0.00291992       0.00342682       0.00381627       0.00418623       0.00482772
         0.00484471       0.00511718       0.00552138       0.00500888       0.00414495       0.00319578       0.00266137       0.00228061       0.00162797       0.00113035  6.73626859E-04  4.30319948E-04  2.88046791E-04  2.49188527E-04  2.34424096E-04  2.34053348E-04  2.15939299E-04  2.37504752E-04  2.30107153E-04  2.19122662E-04
    2.05993679E-04  1.98369260E-04  1.75889492E-04  1.52460699E-04  1.27439852E-04  1.06997886E-04  9.33459102E-05  9.66738620E-05  9.84238232E-05  9.97290183E-05  1.03612120E-04  9.74805461E-05  9.15486143E-05  7.76681975E-05  6.45849536E-05  5.15961348E-05  4.03961349E-05  3.27642189E-05  3.03166887E-05  2.85745261E-05
    2.88402344E-05  3.14004461E-05  3.75757538E-05  3.63110872E-05  4.14606765E-05  4.20606724E-05  4.75444262E-05  5.71613102E-05  7.30336440E-05  9.78604105E-05  1.35865317E-04  1.47271235E-04  1.37872361E-04  1.17969309E-04  9.43288956E-05  7.94204879E-05  8.29585747E-05  9.10616713E-05  1.04201913E-04  1.05176706E-04
    1.16976465E-04  1.21519079E-04  1.19916054E-04  1.42052465E-04  1.63237798E-04  1.62337346E-04  1.65045304E-04  1.67327888E-04  1.66575373E-04  1.62055231E-04  1.61794292E-04  1.39239617E-04  1.21977279E-04  1.13977078E-04  1.11683010E-04  1.15707558E-04  1.06134316E-04  8.62621355E-05  6.92681047E-05  5.46380635E-05
    3.13327499E-04  3.77129269E-04  4.68083900E-04  6.03701547E-04  7.09820650E-04  7.64528426E-04  9.19084554E-04  8.74765471E-04  8.49061324E-04  9.61134385E-04       0.00111019       0.00115045       0.00146204       0.00180375       0.00207907       0.00253171       0.00297323       0.00329248       0.00346635       0.00349361
         0.00377139       0.00397439       0.00434302       0.00417926       0.00363614       0.00302629       0.00252677       0.00224938       0.00166058       0.00119079  7.86350135E-04  4.96648843E-04  3.19185474E-04  2.51959013E-04  2.32622241E-04  2.26518490E-04  2.20816845E-04  2.24186958E-04  2.21667893E-04  2.08120840E-04
    1.96507648E-04  1.92673231E-04  1.70153439E-04  1.46708852E-04  1.26648144E-04  1.05424623E-04  9.08732827E-05  9.20295696E-05  9.74066886E-05  9.93854718E-05  1.01433373E-04  1.01020232E-04  9.29508295E-05  8.25243861E-05  6.80121061E-05  5.25289817E-05  4.26096359E-05  3.36674714E-05  2.99735922E-05  2.57311889E-05
    2.40752662E-05  2.63886646E-05  3.02400526E-05  3.22353888E-05  3.56387767E-05  3.56044852E-05  3.73813274E-05  4.52018875E-05  5.54612340E-05  7.18545284E-05  9.99840707E-05  1.25893993E-04  1.20387844E-04  1.09439141E-04  9.43337677E-05  8.08596757E-05  8.14328166E-05  9.34276231E-05  1.03775678E-04  1.12620938E-04
    1.15449203E-04  1.24130813E-04  1.22118461E-04  1.43325325E-04  1.65746129E-04  1.60854422E-04  1.57602453E-04  1.46271570E-04  1.55512338E-04  1.43568982E-04  1.52365179E-04  1.39247983E-04  1.25023553E-04  1.10651389E-04  1.04641382E-04  1.06364155E-04  9.56887538E-05  8.01802021E-05  6.92567146E-05  5.76664555E-05
    3.22822700E-04  3.63888335E-04  4.40149123E-04  5.76767452E-04  6.97712978E-04  7.62378867E-04  9.06122259E-04  9.24801213E-04  8.78071459E-04  9.79413158E-04       0.00111509       0.00116324       0.00129853       0.00161580       0.00189365       0.00225471       0.00237267       0.00276549       0.00286578       0.00271060
         0.00280500       0.00325393       0.00373873       0.00363919       0.00333970       0.00267581       0.00237622       0.00221713       0.00173284       0.00123133  8.63554667E-04  5.93808973E-04  3.82822584E-04  2.70593306E-04  2.53245658E-04  2.42524500E-04  2.34620700E-04  2.31030215E-04  2.25409184E-04  2.07498209E-04
    2.01541980E-04  1.90479217E-04  1.58904357E-04  1.42292691E-04  1.32549389E-04  1.10805876E-04  9.60688101E-05  9.82912984E-05  1.09087857E-04  1.09352942E-04  1.12325915E-04  1.03118110E-04  9.90530568E-05  8.81509671E-05  7.17945905E-05  5.72985879E-05  4.29659094E-05  3.64406837E-05  3.05666747E-05  2.45477987E-05
    2.17012801E-05  2.36592904E-05  2.56855713E-05  2.71658035E-05  3.00098658E-05  3.18697093E-05  3.11743127E-05  3.54708023E-05  4.48897519E-05  5.61648219E-05  7.21748156E-05  9.36722007E-05  9.94982285E-05  8.94364582E-05  8.13848916E-05  7.92571321E-05  7.63548862E-05  9.15329276E-05  1.02383246E-04  1.13196181E-04
    1.10612880E-04  1.20605438E-04  1.21902896E-04  1.37270064E-04  1.54925438E-04  1.52509114E-04  1.38981455E-04  1.31297893E-04  1.32762195E-04  1.33408142E-04  1.45099746E-04  1.46982093E-04  1.31038674E-04  1.15490302E-04  1.00650279E-04  9.48986942E-05  9.12568893E-05  7.74826110E-05  6.71875926E-05  5.83919622E-05
    3.22378278E-04  3.44891486E-04  4.08484909E-04  5.34624599E-04  6.58487370E-04  7.87965675E-04  9.01003915E-04  9.45040281E-04  9.54735503E-04       0.00101818       0.00112961       0.00118045       0.00128135       0.00142818       0.00168181       0.00190213       0.00204921       0.00230367       0.00228530       0.00206651
         0.00199925       0.00244043       0.00291763       0.00303274       0.00282909       0.00240791       0.00215704       0.00198154       0.00159756       0.00122225  8.77366437E-04  6.37139510E-04  4.42875080E-04  2.96802458E-04  2.43825768E-04  2.40709813E-04  2.36218363E-04  2.33324783E-04  2.29231815E-04  2.02877349E-04
    1.89133351E-04  1.81110811E-04  1.44093239E-04  1.26835875E-04  1.23092258E-04  1.12892853E-04  1.05669755E-04  1.06647046E-04  1.24847800E-04  1.24401916E-04  1.22264430E-04  1.07649125E-04  1.00448247E-04  9.18736605E-05  8.24104642E-05  6.81540338E-05  4.85917924E-05  3.91690426E-05  3.19131607E-05  2.45553813E-05
    2.16216297E-05  2.29184491E-05  2.32396878E-05  2.46203224E-05  2.66410639E-05  2.89590181E-05  2.83556518E-05  3.17556448E-05  4.20792654E-05  4.91817671E-05  5.87818860E-05  7.01304786E-05  8.48522484E-05  7.76530033E-05  6.78382917E-05  7.01756069E-05  7.56646064E-05  8.58977555E-05  1.01589170E-04  1.18410601E-04
    1.15750995E-04  1.17521000E-04  1.26158141E-04  1.44813985E-04  1.53895644E-04  1.42425964E-04  1.27199516E-04  1.22685285E-04  1.31243168E-04  1.34864719E-04  1.51125106E-04  1.62070316E-04  1.53210041E-04  1.28097146E-04  1.05273953E-04  9.00559968E-05  8.24964872E-05  7.77086788E-05  7.07008758E-05  6.35725778E-05
    3.19257057E-04  3.45583112E-04  4.00738683E-04  5.34598142E-04  6.72140451E-04  8.17658413E-04  9.04325625E-04       0.00101052       0.00106106       0.00118392       0.00123503       0.00129031       0.00142918       0.00145408       0.00163871       0.00183227       0.00190345       0.00195249       0.00195397       0.00170383
         0.00166744       0.00194268       0.00229254       0.00265106       0.00260296       0.00232280       0.00190410       0.00169687       0.00145561       0.00117679  9.18495776E-04  6.73595250E-04  5.00015274E-04  3.41660471E-04  2.58555657E-04  2.48533964E-04  2.47183969E-04  2.54317211E-04  2.53876741E-04  2.16005596E-04
    1.86547516E-04  1.75460343E-04  1.45683560E-04  1.24108884E-04  1.29202853E-04  1.23847101E-04  1.19830699E-04  1.19617904E-04  1.37218874E-04  1.43492451E-04  1.36035722E-04  1.17922182E-04  1.00885908E-04  9.97438260E-05  9.48064963E-05  8.22289231E-05  5.68043799E-05  4.30773059E-05  3.42479536E-05  2.50787516E-05
    2.11038739E-05  2.17777856E-05  2.28315935E-05  2.33919662E-05  2.42396902E-05  2.53996199E-05  2.69891909E-05  2.85710708E-05  3.95514623E-05  4.59801188E-05  4.79126006E-05  5.79950021E-05  6.69328238E-05  6.86216518E-05  5.74271242E-05  5.75239056E-05  7.07027218E-05  7.94863910E-05  9.28254971E-05  1.11369354E-04
    1.14472549E-04  1.18827922E-04  1.27104984E-04  1.44670847E-04  1.48366546E-04  1.30958117E-04  1.11580013E-04  1.06249071E-04  1.20502970E-04  1.29673213E-04  1.45724071E-04  1.54200034E-04  1.56205146E-04  1.33346689E-04  1.03466448E-04  8.42004387E-05  7.34165869E-05  7.01446430E-05  7.03875576E-05  6.72264492E-05
    2.90891545E-04  3.33456436E-04  3.94295488E-04  4.84583525E-04  6.35508529E-04  8.15522217E-04  8.86128793E-04  9.52983760E-04       0.00102807       0.00110402       0.00124213       0.00135775       0.00154150       0.00150147       0.00160915       0.00173776       0.00182387       0.00171193       0.00171664       0.00148777
         0.00137709       0.00151701       0.00175966       0.00212627       0.00223709       0.00205067       0.00168953       0.00150490       0.00120684       0.00103706  8.36939585E-04  6.46641291E-04  5.13235860E-04  3.71867116E-04  2.90394768E-04  2.65069613E-04  2.49492723E-04  2.57950427E-04  2.59972195E-04  2.18104579E-04
    1.73656422E-04  1.60758475E-04  1.47602861E-04  1.32898200E-04  1.34566455E-04  1.34201316E-04  1.33439548E-04  1.40639643E-04  1.54392479E-04  1.65150588E-04  1.58689725E-04  1.35557639E-04  1.12310701E-04  1.03669857E-04  1.00769899E-04  8.77838828E-05  6.29827879E-05  4.47003765E-05  3.65060355E-05  2.67968620E-05
    2.09227746E-05  2.08491419E-05  2.19199667E-05  2.24491431E-05  2.36287333E-05  2.30215175E-05  2.51679198E-05  2.73089178E-05  3.51973425E-05  4.22148502E-05  4.59586487E-05  4.83336167E-05  5.39289798E-05  5.87669306E-05  5.40507023E-05  5.27629121E-05  6.47283548E-05  7.30973670E-05  8.37754970E-05  1.03338388E-04
    1.11865406E-04  1.21081676E-04  1.28873658E-04  1.46704484E-04  1.54822919E-04  1.30595809E-04  1.12180136E-04  1.02834009E-04  1.11546126E-04  1.26588055E-04  1.42796452E-04  1.45114430E-04  1.49167245E-04  1.37781352E-04  1.04740021E-04  8.94168709E-05  7.62188034E-05  6.86922859E-05  7.14990124E-05  7.41148244E-05
    2.76451542E-04  3.12647747E-04  3.63107928E-04  4.25855508E-04  5.70266287E-04  7.67409864E-04  8.55164175E-04  8.61488196E-04  8.91735230E-04  9.45938016E-04       0.00108812       0.00135021       0.00155350       0.00157152       0.00161147       0.00168521       0.00176298       0.00168641       0.00159188       0.00139882
         0.00121235       0.00133666       0.00148069       0.00171496       0.00194543       0.00196291       0.00161723       0.00132870       0.00105884  9.29061585E-04  7.84459539E-04  6.06472388E-04  4.83924323E-04  3.76034762E-04  3.12233182E-04  2.84189673E-04  2.55888995E-04  2.52752896E-04  2.48550679E-04  2.16513859E-04
    1.64310180E-04  1.46648047E-04  1.38404036E-04  1.37266974E-04  1.35115310E-04  1.29853214E-04  1.38872055E-04  1.56719138E-04  1.66414208E-04  1.88741259E-04  1.73249059E-04  1.54564430E-04  1.32254747E-04  1.09972075E-04  1.00500764E-04  8.40775948E-05  6.16935717E-05  4.22467617E-05  3.42417645E-05  2.73326817E-05
    2.01003812E-05  1.88993326E-05  2.00632097E-05  2.15198515E-05  2.18806469E-05  2.14899007E-05  2.36694897E-05  2.67527017E-05  3.34280196E-05  3.90003902E-05  4.10840018E-05  4.37188779E-05  4.49543477E-05  4.93143673E-05  4.98495551E-05  4.64988885E-05  5.42316501E-05  6.54821803E-05  7.14410608E-05  8.66196781E-05
    9.90370190E-05  1.06027077E-04  1.12141065E-04  1.26741334E-04  1.37256524E-04  1.23456015E-04  1.04343376E-04  9.28985569E-05  9.55111574E-05  1.13900096E-04  1.26845503E-04  1.39084769E-04  1.30653490E-04  1.26279220E-04  1.01045222E-04  8.57342103E-05  7.35731745E-05  6.90683844E-05  6.71964313E-05  7.25647703E-05
    2.64800420E-04  2.68570235E-04  3.06657562E-04  3.62457950E-04  4.65913786E-04  6.40490311E-04  7.58553595E-04  7.27396000E-04  7.29131693E-04  7.95939036E-04  8.98967656E-04       0.00116033       0.00138924       0.00148277       0.00153900       0.00160726       0.00159700       0.00164840       0.00151411       0.00132852
         0.00113006       0.00119859       0.00132299       0.00151588       0.00162063       0.00164138       0.00154896       0.00129023  9.64757788E-04  8.25887588E-04  7.14802593E-04  5.69897520E-04  4.52650474E-04  3.66679884E-04  3.18666780E-04  2.87707437E-04  2.53473172E-04  2.50833730E-04  2.23495220E-04  2.02102681E-04
    1.69708225E-04  1.38904213E-04  1.27587389E-04  1.35816845E-04  1.32649785E-04  1.27153172E-04  1.40185542E-04  1.58288392E-04  1.73418980E-04  1.93192834E-04  1.88788225E-04  1.69088810E-04  1.48356733E-04  1.27859417E-04  1.03640318E-04  8.12090721E-05  5.97610034E-05  4.10488240E-05  3.02656796E-05  2.50865303E-05
    2.11325667E-05  1.86196516E-05  1.87211286E-05  1.90535040E-05  1.96551439E-05  1.93890237E-05  2.29407675E-05  2.71058193E-05  3.16286496E-05  3.58374235E-05  3.98860163E-05  4.21214378E-05  4.38547318E-05  4.46286086E-05  4.41715852E-05  4.40767296E-05  4.89643941E-05  5.80529885E-05  6.73700212E-05  7.93515827E-05
    9.15475922E-05  1.02478795E-04  9.99408648E-05  1.03810746E-04  1.16410304E-04  1.15010092E-04  9.97604870E-05  8.79472391E-05  9.13322528E-05  1.03534462E-04  1.20945639E-04  1.35583283E-04  1.32587513E-04  1.16966049E-04  1.03950117E-04  8.56863104E-05  7.48022564E-05  7.32015497E-05  7.15275480E-05  7.45417437E-05
    2.51621755E-04  2.32252808E-04  2.54192390E-04  3.01904013E-04  3.62981962E-04  5.01554644E-04  6.12437251E-04  6.16238981E-04  5.93720212E-04  6.49432897E-04  7.24095940E-04  9.07183694E-04       0.00112245       0.00130541       0.00139366       0.00149139       0.00151533       0.00147766       0.00143346       0.00129937