# File generated by Flopy version 3.7.0 on 06/13/2024 at 08:00:05.
BEGIN options
END options

BEGIN griddata
  strt
    INTERNAL  FACTOR  1.0
        15.00000000      15.00000000      15.00000000      15.00000000      15.00000000      15.00000000      15.00000000      15.00000000      15.00000000      15.00000000      15.00000000      15.00000000      15.00000000      15.00000000      15.00000000      15.00000000      15.00000000      15.00000000      15.00000000      15.00000000
        15.00000000      15.00000000      15.00000000      15.00000000      15.00000000      15.00000000      15.00000000      15.00000000      15.00000000      15.00000000      15.00000000      15.00000000      15.00000000      15.00000000      15.00000000      15.00000000      15.00000000      15.00000000      15.00000000      15.00000000
        15.00000000      15.00000000      15.00000000      15.00000000      15.00000000      15.00000000      15.00000000      15.00000000      15.00000000      15.00000000      15.00000000      15.00000000      15.00000000      15.00000000      15.00000000      15.00000000      15.00000000      15.00000000      15.00000000      15.00000000
        15.00000000      15.00000000      15.00000000      15.00000000      15.00000000      15.00000000      15.00000000      15.00000000      15.00000000      15.00000000      15.00000000      15.00000000      15.00000000      15.00000000      15.00000000      15.00000000      15.00000000      15.00000000      15.00000000      15.00000000
        15.00000000      15.00000000      15.00000000      15.00000000      15.00000000      15.00000000      15.00000000      15.00000000      15.00000000      15.00000000      15.00000000      15.00000000      15.00000000      15.00000000      15.00000000      15.00000000      15.00000000      15.00000000      15.00000000      15.00000000
        15.02792387      15.02945331      15.03099970      15.03394263      15.03929198      15.04699440      15.05294324      15.05723468      15.06512277      15.07796351      15.09429476      15.10901585      15.11165892      15.09948310      15.07884109      15.06221225      15.05128267      15.04250008      15.03685003      15.03494915
        15.03371877      15.03087228      15.02645143      15.02167071      15.01830122      15.01650260      15.01581407      15.01769460      15.02563491      15.04513731      15.07441771      15.10603684      15.12949418      15.14661209      15.15720546      15.15701448      15.14008662      15.11842230      15.09164761      15.07204963
        15.06315103      15.05973349      15.06211337      15.07912940      15.09602494      15.10184248      15.10555341      15.11595132      15.12520447      15.12597032      15.12297571      15.11795896      15.10861299      15.09552468      15.08493066      15.08708387      15.09152294      15.09606791      15.10588093      15.12301666
        15.13889847      15.13508387      15.11792361      15.10439836      15.09979015      15.09386377      15.09286461      15.09153754      15.08841685      15.07850329      15.06105102      15.04289342      15.02987765      15.02001720      15.01468466      15.01319839      15.01366012      15.01556248      15.01790426      15.02026880
        15.02275736      15.02697596      15.03213905      15.03533225      15.03656252      15.03476281      15.03205107      15.03091521      15.03242026      15.03745938      15.04874436      15.06490076      15.08077727      15.09893392      15.11948502      15.15341782      15.19322462      15.22402486      15.23445629      15.23630103
        15.05860237      15.06142386      15.06598638      15.07565111      15.08905571      15.10353535      15.11387612      15.12199646      15.13403014      15.15562027      15.17726317      15.18695771      15.17894964      15.15523081      15.12790271      15.10437145      15.08931573      15.07990115      15.07451313      15.07042333
        15.06559076      15.05997520      15.05238018      15.04453227      15.03753863      15.03368518      15.03442911      15.04421556      15.07130120      15.11615172      15.16421583      15.20441662      15.23509700      15.25802846      15.27248355      15.27322531      15.25268550      15.22421296      15.19787178      15.17658729
        15.16224559      15.16360998      15.18240278      15.20194161      15.21583371      15.22092463      15.23201897      15.24438421      15.25208772      15.24585947      15.23672399      15.22166092      15.20620683      15.18877841      15.17961610      15.18276643      15.19075244      15.20222353      15.21986683      15.24109217
        15.25713940      15.25758639      15.25155749      15.24912458      15.24125659      15.22604266      15.21221686      15.19287794      15.16511104      15.13298749      15.10397823      15.07783477      15.05737369      15.04316498      15.03601498      15.03358911      15.03488482      15.03717918      15.04041619      15.04519389
        15.05212842      15.05969197      15.06610939      15.06980884      15.07157502      15.07232381      15.07475121      15.08281341      15.09621645      15.11858625      15.14135305      15.16256539      15.18318282      15.21362805      15.25328893      15.29492004      15.32058776      15.33382010      15.35063081      15.36506581
        15.08170998      15.08657535      15.09684336      15.11265347      15.13078381      15.14627311      15.16264292      15.18162079      15.20335257      15.22556759      15.23987115      15.24040210      15.22964393      15.20834601      15.18147645      15.15478350      15.13584141      15.12357011      15.11317330      15.10285952
        15.09417040      15.08637221      15.07728053      15.06815866      15.06225466      15.06174899      15.07153004      15.09456603      15.13806973      15.19075117      15.23702323      15.27769349      15.31657134      15.34542315      15.36258344      15.37149759      15.36558601      15.35154576      15.34457950      15.33676233
        15.32662738      15.32998601      15.34453924      15.34788127      15.34792633      15.34416327      15.34119045      15.33339426      15.32152130      15.30932223      15.29652155      15.28186927      15.26673900      15.25498560      15.25023136      15.25075913      15.26007938      15.27920445      15.30220941      15.32490595
        15.34058240      15.35242203      15.36191412      15.36230791      15.34611596      15.32123730      15.29083878      15.25748004      15.21853685      15.17970348      15.14495965      15.11741869      15.09464133      15.07722499      15.06614746      15.06229165      15.06385982      15.06625168      15.07004980      15.07500902
        15.08129533      15.08596627      15.08917418      15.09220805      15.09676380      15.10771302      15.13054205      15.16762158      15.21402208      15.25723517      15.28309664      15.30918831      15.34486763      15.38167176      15.41840737      15.44109780      15.45120910      15.45982715      15.47343985      15.48446742
        15.10786882      15.11297661      15.12612230      15.14611778      15.16798821      15.19195266      15.21852218      15.24372170      15.26711760      15.28368666      15.28981901      15.28712705      15.27461555      15.25614986      15.23171389      15.20227835      15.17616411      15.15749820      15.14239324      15.12950883
        15.11881534      15.11122692      15.10466659      15.10034766      15.10062222      15.10901728      15.12682881      15.15780105      15.20384302      15.25264716      15.30451202      15.35812493      15.40020236      15.42938328      15.45124353      15.46710402      15.47514486      15.47593116      15.47982550      15.48091897
        15.47473123      15.46679237      15.46166831      15.45363274      15.44143803      15.42625122      15.40726333      15.38422976      15.36114253      15.34277685      15.32917101      15.31827550      15.30988566      15.30569247      15.30533961      15.31185926      15.32851032      15.34994217      15.37349553      15.39369719
        15.40884274      15.42008619      15.42172624      15.41365061      15.39690405      15.37003298      15.33632044      15.30109476      15.26588288      15.23189978      15.19948368      15.17282931      15.14974112      15.12824755      15.11219539      15.10339976      15.10036889      15.09961384      15.09948514      15.09955400
        15.09941385      15.09989319      15.10155705      15.10704630      15.12069646      15.15353562      15.21031444      15.28862146      15.36834251      15.43169280      15.47388883      15.50795365      15.54354864      15.56285957      15.57220824      15.57256705      15.56975961      15.56472181      15.55630175      15.55035796
        15.14527960      15.15650885      15.17838680      15.20516334      15.22796490      15.25252497      15.27639220      15.29608150      15.31127035      15.31822467      15.31751559      15.31191404      15.30066903      15.28292492      15.25853035      15.22889882      15.20006742      15.17757465      15.16116620      15.14955875
        15.14253554      15.14050037      15.14209384      15.15002330      15.16329216      15.18185197      15.20531528      15.24636529      15.30379318      15.36622283      15.42125119      15.46099469      15.48444273      15.50374509      15.52302488      15.53556168      15.54431436      15.54817430      15.54664601      15.54320716
        15.53719690      15.52672889      15.51851700      15.50885629      15.49473724      15.47803337      15.45946545      15.43741457      15.41354041      15.39652067      15.38629174      15.38204128      15.38494718      15.38889494      15.39626337      15.40767540      15.41917379      15.42963558      15.44119283      15.44892083
        15.45299486      15.45238311      15.44826644      15.43830495      15.42207625      15.39958694      15.37195608      15.34019520      15.31117224      15.28716782      15.26442962      15.24215041      15.21949494      15.19291621      15.16999429      15.15032441      15.13498389      15.12542407      15.11867147      15.11455655
        15.11231827      15.11236484      15.11663041      15.12854984      15.15955598      15.22280723      15.32421986      15.43008876      15.51931066      15.58445766      15.62678936      15.64918962      15.66123142      15.66017227      15.64967665      15.63452199      15.61853384      15.60310864      15.58939008      15.57960615
        15.22386788      15.23854120      15.26374338      15.28474377      15.29666714      15.30615955      15.31569057      15.32514583      15.33066082      15.33122078      15.32796502      15.32155313      15.31116346      15.29443553      15.27056005      15.24125776      15.21238962      15.18868289      15.17134688      15.16133862
        15.16040075      15.16677628      15.17949457      15.20072523      15.23017063      15.26220789      15.30555128      15.36833250      15.43689280      15.49005849      15.52080475      15.53616575      15.54473398      15.55304789      15.56069892      15.56568927      15.56811323      15.56840833      15.56690177      15.56351025
        15.55864785      15.55261969      15.54545777      15.53624584      15.52564162      15.51216633      15.49747938      15.48689742      15.47736344      15.47274066      15.47506955      15.47998054      15.48727076      15.49216139      15.49470189      15.49711777      15.49644064      15.49216260      15.48649375      15.48211438
        15.47799067      15.47411985      15.46912787      15.46056296      15.44508547      15.42502263      15.40105936      15.37482835      15.35040829      15.33199350      15.31689873      15.30138683      15.28348179      15.25568902      15.22220580      15.19132976      15.16548363      15.14758658      15.13751381      15.13390573
        15.13538714      15.14111700      15.15264520      15.17966393      15.23911052      15.34183444      15.46122411      15.55734914      15.62753746      15.66965446      15.69380017      15.70351286      15.70233049      15.69274348      15.67672896      15.65723129      15.63890854      15.62367070      15.61231003      15.60678426
        15.34810900      15.35255862      15.35620926      15.35137735      15.34608716      15.34184781      15.33928897      15.34052349      15.34120056      15.33985274      15.33588023      15.32843068      15.31726070      15.30102451      15.27820358      15.24816940      15.21597868      15.18897788      15.16952349      15.16107405
        15.16567135      15.18181530      15.20748048      15.24284822      15.28336558      15.32751482      15.38856298      15.46010511      15.51600545      15.54550504      15.55846318      15.56459123      15.56825535      15.57107543      15.57311242      15.57409532      15.57452547      15.57474433      15.57458528      15.57366040
        15.57184782      15.56849538      15.56218592      15.55406738      15.54694389      15.54165128      15.53699182      15.53588699      15.53939391      15.54370458      15.54970849      15.55591654      15.55815484      15.55886706      15.55719489      15.55112045      15.54152083      15.52858662      15.51534297      15.50542449
        15.49876767      15.49593688      15.49515761      15.48880555      15.47373056      15.45103714      15.42694818      15.40281578      15.38079484      15.36360272      15.35040900      15.33790762      15.32360885      15.30138191      15.26747067      15.23261669      15.20511324      15.18867245      15.18475695      15.18486902
        15.18634460      15.19819149      15.22657503      15.27843325      15.36711896      15.47879391      15.57332322      15.63902505      15.68019184      15.70397370      15.71855081      15.72501578      15.72282806      15.71386501      15.69978709      15.68303449      15.66767168      15.65537759      15.64570247      15.64248972
        15.48728574      15.46923361      15.43979134      15.41443949      15.39697728      15.38359305      15.37264109      15.36369030      15.35691971      15.35116103      15.34481688      15.33617188      15.32439719      15.30702134      15.28236980      15.25070506      15.21407935      15.17912035      15.15229125      15.13848662
        15.15282281      15.18792123      15.23208492      15.27827840      15.32543996      15.38123882      15.44965332      15.50959202      15.54380169      15.55901416      15.56588524      15.57004510      15.57292975      15.57500737      15.57635324      15.57727126      15.57816880      15.57933033      15.58060445      15.58195088
        15.58254136      15.58124569      15.57733097      15.57341893      15.57116873      15.57248664      15.57766030      15.58364897      15.59065897      15.59863575      15.60502479      15.60805342      15.60582658      15.60262753      15.59832512      15.58790498      15.57344564      15.55797618      15.54392571      15.53319878
        15.52869635      15.53152857      15.53642143      15.53204025      15.51642458      15.48958184      15.45913099      15.43110383      15.40601289      15.38844374      15.37614157      15.36319552      15.34993159      15.33367151      15.31002823      15.28155376      15.25911185      15.25073602      15.25200929      15.25245300
        15.25697999      15.27641712      15.32045510      15.39352477      15.48897524      15.57664531      15.63605976      15.67547712      15.70546469      15.72648876      15.73959162      15.74389451      15.74103967      15.73408437      15.72442290      15.71357404      15.70233986      15.69272445      15.68524309      15.68279973
        15.58408258      15.55800151      15.51660950      15.47958215      15.45360642      15.43411693      15.41444244      15.39438573      15.37795518      15.36704832      15.35751228      15.34624675      15.33215560      15.31270857      15.28630367      15.24994975      15.20364109      15.15091715      15.09320302      15.06198853
        15.10331358      15.17803755      15.24713958      15.30743547      15.37060696      15.43741477      15.49633946      15.53289689      15.55050488      15.55952614      15.56595557      15.57055971      15.57385997      15.57648017      15.57843098      15.57999758      15.58177261      15.58403790      15.58670362      15.58983775
        15.59282890      15.59473333      15.59674071      15.60155044      15.60652932      15.61202049      15.61980890      15.62975189      15.64259792      15.65285843      15.65528198      15.65185688      15.64679346      15.63935825      15.62852175      15.61661526      15.60400660      15.59131776      15.57716438      15.56756688
        15.57676878      15.59926413      15.60831740      15.60006814      15.57700272      15.54585662      15.50928911      15.47634321      15.45488271      15.44129096      15.42652553      15.41299063      15.40172690      15.39228428      15.37468027      15.35354169      15.34083237      15.33088739      15.32483671      15.32330480
        15.34073753      15.37850078      15.43342346      15.50497653      15.57912487      15.63717894      15.67936863      15.71333341      15.73876328      15.75514688      15.76323781      15.76448665      15.76140256      15.75562043      15.74820431      15.74008403      15.73188792      15.72596942      15.72623712      15.72873000
        15.64565371      15.61870738      15.58082444      15.53985236      15.50307059      15.47312461      15.44838677      15.42512649      15.40492706      15.38930995      15.37434118      15.35828207      15.33997614      15.31705084      15.28651264      15.24495852      15.19046871      15.11098645      14.98072389      14.93201591
        14.93025622      14.79755411      14.79324767      14.98837855      15.14832138      15.25717751      15.34178914      15.41704941      15.47720279      15.51634158      15.53763524      15.54940957      15.55740393      15.56427884      15.57001878      15.57436615      15.57757652      15.58019263      15.58312421      15.58682014
        15.59081191      15.59502927      15.59991136      15.60603204      15.61416254      15.62493757      15.63672214      15.64738522      15.65734816      15.67034287      15.68644108      15.69861453      15.70099311      15.69495728      15.68701671      15.67973741      15.67071099      15.66037548      15.65198032      15.64560601
        15.63589386      15.61145490      15.58368154      15.58495719      15.56808242      15.57338350      15.63780223      15.69441158      15.70712159      15.69302831      15.66379855      15.63405649      15.60389483      15.57749508      15.56228082      15.55557390      15.55449261      15.54791712      15.54178711      15.53158208
        15.51400951      15.49532068      15.47561630      15.44497562      15.42382631      15.42824505      15.45791134      15.49986122      15.54454706      15.59696480      15.65079823      15.69269215      15.72539830      15.75133035      15.76964431      15.78014004      15.78358933      15.78265162      15.77859239      15.77291834
        15.76755363      15.76161973      15.75755368      15.75869069      15.76527124      15.76938193      15.69103626      15.66830405      15.63210737      15.59246814      15.55328303      15.51689287      15.48297309      15.45337379      15.42700256      15.40399148      15.38573295      15.36727792      15.34544518      15.31835024
        15.28509123      15.24447590      15.19174575      15.10683984      14.97280438      14.84361518      14.99513455      14.88731841      14.67296981      14.53883733      14.58983555      14.38236961      14.25042120      14.27158590      14.04178226      13.89069258      13.90053710      13.33716770      14.55167895      14.66785766
        14.30492507      14.43377140      14.05325554      14.19804214      13.90318168      14.15538889      14.37225414      14.60124459      14.64108527      14.34903040      14.07523237      13.91408100      14.22849080      14.17701211      14.49449645      14.41500119      14.77511607      14.68513923      14.06686042      14.22032211
        14.22978262      14.30643234      14.41868527      14.43828552      14.52290767      14.64246879      14.68647817      14.76195687      14.82733140      14.96524039      14.86012806      14.97915951      15.12982727      15.27207177      15.37334913      15.44653167      15.49408817      15.52110219      15.53634343      15.54659932
        15.55484918      15.56240454      15.56932476      15.57472535      15.57897100      15.58365552      15.58977025      15.59600768      15.60135987      15.60731419      15.61497981      15.62479301      15.63798924      15.65427865      15.67060896      15.68663440      15.70381980      15.72125749      15.73317126      15.73555840
        15.73120269      15.72511506      15.71887845      15.71318298      15.70772220      15.70536762      15.70825076      15.71490418      15.71576040      15.66901786      15.62388439      15.72649347      15.69890431      15.54730192      15.49975599      15.53145585      15.44811619      15.39474971      15.41125878      15.31163428
        15.24639396      15.25492744      15.00616625      15.51550497      15.57543642      15.42507275      15.48682799      15.32229822      15.38935240      15.26238027      15.37696432      15.47259351      15.57172427      15.58962208      15.46437017      15.34253082      15.27278091      15.41847383      15.39834610      15.54534415
        15.51653224      15.68815606      15.66521937      15.34390743      15.41527060      15.42494389      15.46081309      15.51124282      15.53242754      15.57269764      15.62309237      15.67459690      15.70564341      15.66364216      15.72079333      15.72807422      15.76199553      15.77496644      15.78402420      15.77669904
        15.76075936      15.74367563      15.73107788      15.72231709      15.71503384      15.71496776      15.72037407      15.71659913      15.70787399      15.69103317      15.66917025      15.64718879      15.61840918      15.58353635      15.56449047      15.58077408      15.60214893      15.62061860      15.64463274      15.67945266
        15.71223500      15.73989201      15.76389712      15.78443636      15.79650565      15.80110517      15.80145594      15.79910468      15.79493775      15.78900390      15.78417331      15.78183576      15.78322247      15.78841516      15.79264518      15.79339769      15.71919146      15.70503967      15.67668868      15.64084390
        15.60130497      15.55978397      15.51842925      15.47987200      15.44682424      15.41891560      15.39676303      15.37418993      15.34888711      15.31873008      15.28441402      15.24875887      15.20871380      15.14906047      15.04458181      14.90748837      14.89284593      14.99754289      14.98756631      15.01902875
        15.17513217      15.30692442      15.39689999      15.45892253      15.49749300      15.52021283      15.53385182      15.54364281      15.55232166      15.56065574      15.56918116      15.57778844      15.58626931      15.59543780      15.60439045      15.61268676      15.62113305      15.62931304      15.63767821      15.64921625
        15.66713400      15.68948899      15.71088227      15.72995148      15.74773894      15.75964921      15.76269494      15.76048851      15.75720061      15.75631829      15.75751157      15.75883470      15.76139156      15.76683857      15.77790995      15.79199465      15.80008042      15.79472549      15.76894568      15.77435668
        15.80336787      15.80605913      15.80722950      15.82179772      15.83025322      15.83526656      15.83784365      15.83634976      15.83587688      15.83659766      15.83281903      15.82992486      15.82281859      15.81132371      15.79289294      15.77296963      15.75062963      15.72933703      15.70829878      15.69655492
        15.70050300      15.71589351      15.72381809      15.72898137      15.74239308      15.76128139      15.78025404      15.79789158      15.81255049      15.82228495      15.82502645      15.82422613      15.82126516      15.81782223      15.81518989      15.81193933      15.80954649      15.80984057      15.81088760      15.81152961
        15.80932988      15.80697670      15.73599016      15.72493487      15.70366765      15.67290310      15.63563249      15.59040813      15.54309959      15.50058700      15.46544616      15.43678939      15.41161392      15.38535721      15.35452339      15.32052294      15.28906261      15.26021945      15.22872058      15.19139814
        15.14328756      15.11187508      15.15471483      15.25526280      15.34500507      15.41009289      15.45931921      15.49338653      15.51507987      15.52989756      15.54110894      15.55075355      15.56074202      15.57225681      15.58520008      15.59809619      15.61065590      15.62314411      15.63561922      15.64668416
        15.65644375      15.66853596      15.68773266      15.71195705      15.73348518      15.75272030      15.76916475      15.78180667      15.78754958      15.78853044      15.78884461      15.79260540      15.80149808      15.81197193      15.81752137      15.82230806      15.82734696      15.83417639      15.84094605      15.84249549
        15.83892492      15.83688139      15.84240251      15.85385034      15.86563903      15.87607637      15.88548847      15.89167237      15.89390968      15.89324712      15.88603740      15.87510659      15.86176030      15.84732092      15.82975615      15.81075876      15.79319163      15.77825788      15.76927630      15.77207200
        15.78182658      15.79016122      15.79852866      15.80731854      15.82088327      15.83461383      15.84751752      15.85480359      15.85660291      15.85487530      15.85341938      15.84985383      15.84535530      15.84153542      15.83850758      15.83623850      15.83424300      15.83281182      15.82980408      15.82539641
        15.82045362      15.81715208      15.75034996      15.73786921      15.71411346      15.68280618      15.64517528      15.59981162      15.55381645      15.51365535      15.47891117      15.44911665      15.42184376      15.39331201      15.36348567      15.33334036      15.30442131      15.28029284      15.25634448      15.23035651
        15.20755861      15.20710288      15.24476424      15.30282974      15.35734274      15.40626887      15.45096071      15.48540549      15.50905528      15.52546806      15.53797821      15.54963906      15.56169223      15.57674018      15.59371609      15.61048140      15.62690238      15.64372557      15.65841711      15.67083798
        15.68438114      15.70263187      15.72595380      15.74748910      15.76584542      15.78371440      15.79748738      15.80708613      15.81347733      15.81944737      15.82679849      15.83689225      15.84802126      15.85657950      15.85975587      15.86145075      15.86277813      15.86408905      15.86456130      15.86389923
        15.86251607      15.86364516      15.86922305      15.87931288      15.88954706      15.90145432      15.91169553      15.91738238      15.91857994      15.91482049      15.90621500      15.89491187      15.88175533      15.86750999      15.85401155      15.84128172      15.83079222      15.82188393      15.81908454      15.82218831
        15.83145572      15.84121069      15.85025632      15.86013257      15.87030492      15.88038761      15.88742475      15.89029626      15.88941747      15.88545140      15.88021656      15.87383492      15.86811013      15.86364892      15.85835907      15.85314323      15.84785757      15.84288357      15.83791591      15.83294738
        15.82845299      15.82573154      15.74679105      15.73141498      15.70590750      15.67473558      15.63857107      15.60124228      15.56449673      15.52531580      15.48640419      15.45337705      15.42695699      15.40164372      15.37465643      15.34858040      15.32418840      15.30225066      15.28385743      15.26786035
        15.25716578      15.26144638      15.28598673      15.32103119      15.35806815      15.39474942      15.43338824      15.47048478      15.49768898      15.51664327      15.53092628      15.54561754      15.56172561      15.58061772      15.60221113      15.62381028      15.64382888      15.66187173      15.67674441      15.69099315
        15.70836299      15.72894696      15.75122706      15.77196313      15.79065969      15.80595548      15.81840512      15.83029880      15.84227215      15.85319437      15.86244438      15.86924052      15.87367495      15.87603923      15.87707568      15.87685702      15.87739976      15.87838960      15.87874854      15.87930132
        15.88101377      15.88507794      15.89059347      15.89795535      15.90790943      15.91759033      15.92379750      15.92712557      15.92735564      15.92365841      15.91620978      15.90656469      15.89585897      15.88426487      15.87273562      15.86392711      15.85935852      15.85712147      15.85881897      15.86502741
        15.87325083      15.88029463      15.88645601      15.89305731      15.90044886      15.90742170      15.91214105      15.91568154      15.91485406      15.90979297      15.90150101      15.89308373      15.88484083      15.87751364      15.87031850      15.86339110      15.85627263      15.84970609      15.84439152      15.83989908
        15.83596498      15.83345445      15.72921743      15.71569252      15.69239911      15.66436351      15.63222434      15.59516171      15.55492797      15.51524849      15.48148683      15.45537289      15.43288141      15.41064632      15.38682933      15.36331253      15.34271060      15.32446754      15.30857455      15.29557144
        15.28859636      15.29121114      15.30380495      15.32380629      15.35020044      15.38074012      15.41220030      15.44525687      15.47558091      15.49845989      15.51652650      15.53546386      15.55653247      15.58049914      15.60658607      15.63057739      15.65159683      15.67013762      15.68657763      15.70421520