# File generated by Flopy version 3.6.0 on 04/11/2024 at 11:27:17.
BEGIN options
  SAVE_FLOWS
END options

BEGIN packages
  DISV6  Reference.disv  disv
  OC6  Reference.oc  oc
  STO6  Reference.sto  sto
END packages

