# File generated by Flopy version 3.6.0 on 02/25/2025 at 10:29:31.
BEGIN options
END options

BEGIN dimensions
  MAXBOUND  5000
END dimensions

BEGIN period  1
  1 1 1.37037301E-08
  1 2 1.33357109E-08
  1 3 1.36037994E-08
  1 4 1.33577990E-08
  1 5 1.30787516E-08
  1 6 1.30534148E-08
  1 7 1.31814649E-08
  1 8 1.29200867E-08
  1 9 1.29394127E-08
  1 10 1.30782530E-08
  1 11 1.29303201E-08
  1 12 1.31624157E-08
  1 13 1.28939320E-08
  1 14 1.27211823E-08
  1 15 1.26304139E-08
  1 16 1.24053573E-08
  1 17 1.20183358E-08
  1 18 1.15482603E-08
  1 19 1.10598005E-08
  1 20 1.04694773E-08
  1 21 1.00745515E-08
  1 22 9.58045340E-09
  1 23 8.96739078E-09
  1 24 8.56981946E-09
  1 25 8.13037511E-09
  1 26 7.56334167E-09
  1 27 6.98994424E-09
  1 28 6.57262467E-09
  1 29 6.40101153E-09
  1 30 6.24677840E-09
  1 31 6.14841594E-09
  1 32 6.16225077E-09
  1 33 6.25585673E-09
  1 34 6.16300320E-09
  1 35 6.19363620E-09
  1 36 6.21216319E-09
  1 37 6.40288693E-09
  1 38 6.24628825E-09
  1 39 6.14961408E-09
  1 40 6.03980404E-09
  1 41 6.15677231E-09
  1 42 6.31260541E-09
  1 43 6.15152823E-09
  1 44 5.67669736E-09
  1 45 5.96652995E-09
  1 46 6.09185530E-09
  1 47 6.20651671E-09
  1 48 6.42888971E-09
  1 49 6.25301796E-09
  1 50 6.29895677E-09
  1 51 6.49956620E-09
  1 52 6.47365543E-09
  1 53 6.30018382E-09
  1 54 6.71466662E-09
  1 55 6.69416641E-09
  1 56 6.51686681E-09
  1 57 6.22273975E-09
  1 58 6.36433769E-09
  1 59 6.55084961E-09
  1 60 6.86547014E-09
  1 61 6.85186178E-09
  1 62 6.80345831E-09
  1 63 6.37289963E-09
  1 64 6.36306737E-09
  1 65 6.17119615E-09
  1 66 5.66722342E-09
  1 67 5.56163138E-09
  1 68 5.49716234E-09
  1 69 5.64419138E-09
  1 70 5.52314289E-09
  1 71 5.48308073E-09
  1 72 5.41856204E-09
  1 73 5.29783194E-09
  1 74 5.12465811E-09
  1 75 4.78220280E-09
  1 76 4.68250597E-09
  1 77 4.19566132E-09
  1 78 3.88013176E-09
  1 79 3.57126274E-09
  1 80 3.48365780E-09
  1 81 3.27398432E-09
  1 82 3.24162847E-09
  1 83 3.14503290E-09
  1 84 2.99430625E-09
  1 85 3.13509434E-09
  1 86 2.82590487E-09
  1 87 3.11965991E-09
  1 88 3.18622704E-09
  1 89 3.25291717E-09
  1 90 3.23637270E-09
  1 91 3.54549219E-09
  1 92 3.61901663E-09
  1 93 3.70568223E-09
  1 94 3.50601915E-09
  1 95 3.37749882E-09
  1 96 3.64826037E-09
  1 97 3.36317402E-09
  1 98 3.32824496E-09
  1 99 3.24166939E-09
  1 100 3.63825145E-09
  1 101 1.36108252E-08
  1 102 1.32304898E-08
  1 103 1.34766130E-08
  1 104 1.31255520E-08
  1 105 1.28025793E-08
  1 106 1.27838157E-08
  1 107 1.28153637E-08
  1 108 1.25759556E-08
  1 109 1.26073052E-08
  1 110 1.27869406E-08
  1 111 1.24907204E-08
  1 112 1.24930279E-08
  1 113 1.21162872E-08
  1 114 1.18503257E-08
  1 115 1.15528128E-08
  1 116 1.10377596E-08
  1 117 1.03922674E-08
  1 118 9.79372944E-09
  1 119 9.25844907E-09
  1 120 8.67454414E-09
  1 121 8.30816406E-09
  1 122 7.85423170E-09
  1 123 7.25331281E-09
  1 124 6.98236711E-09
  1 125 6.83589469E-09
  1 126 6.33425946E-09
  1 127 5.81668160E-09
  1 128 5.49459164E-09
  1 129 5.81411763E-09
  1 130 5.99148476E-09
  1 131 6.03019326E-09
  1 132 5.94119086E-09
  1 133 6.03958936E-09
  1 134 6.05914093E-09
  1 135 6.06586361E-09
  1 136 5.90823144E-09
  1 137 5.81783894E-09
  1 138 5.50618024E-09
  1 139 5.62492869E-09
  1 140 5.74978484E-09
  1 141 6.08241899E-09
  1 142 6.24514188E-09
  1 143 6.09756869E-09
  1 144 5.65703862E-09
  1 145 5.92788174E-09
  1 146 6.06352186E-09
  1 147 6.25601994E-09
  1 148 6.59754943E-09
  1 149 6.56570997E-09
  1 150 6.68939431E-09
  1 151 6.93747002E-09
  1 152 6.88890096E-09
  1 153 6.53281205E-09
  1 154 6.75330056E-09
  1 155 6.70954967E-09
  1 156 6.60954588E-09
  1 157 6.44359661E-09
  1 158 6.59751845E-09
  1 159 6.90343787E-09
  1 160 7.09721453E-09
  1 161 6.70739204E-09
  1 162 6.46583658E-09
  1 163 5.95828148E-09
  1 164 5.80213032E-09
  1 165 5.55980994E-09
  1 166 5.20629506E-09
  1 167 5.43961301E-09
  1 168 5.57110972E-09
  1 169 5.72492936E-09
  1 170 5.40962786E-09
  1 171 5.18344119E-09
  1 172 4.99853450E-09
  1 173 4.80337731E-09
  1 174 4.56766237E-09
  1 175 4.17286569E-09
  1 176 3.98292217E-09
  1 177 3.49518538E-09
  1 178 3.28709932E-09
  1 179 3.15857248E-09
  1 180 3.26752434E-09
  1 181 3.14014922E-09
  1 182 3.11222675E-09
  1 183 2.95488689E-09
  1 184 2.81295279E-09
  1 185 2.92402348E-09
  1 186 2.67318771E-09
  1 187 3.21328352E-09
  1 188 3.40064123E-09
  1 189 3.54540554E-09
  1 190 3.40403881E-09
  1 191 3.56620328E-09
  1 192 3.66492586E-09
  1 193 3.66893454E-09
  1 194 3.35704164E-09
  1 195 3.13103227E-09
  1 196 3.44067587E-09
  1 197 3.24238016E-09
  1 198 3.24302783E-09
  1 199 3.25046072E-09
  1 200 3.68002958E-09
  1 201 1.32416062E-08
  1 202 1.27398570E-08
  1 203 1.29058796E-08
  1 204 1.25266727E-08
  1 205 1.21713946E-08
  1 206 1.22706943E-08
  1 207 1.23245959E-08
  1 208 1.21809688E-08
  1 209 1.20033610E-08
  1 210 1.19120640E-08
  1 211 1.14758352E-08
  1 212 1.13679404E-08
  1 213 1.07219230E-08
  1 214 1.01898785E-08
  1 215 9.68181949E-09
  1 216 9.07341539E-09
  1 217 8.43507608E-09
  1 218 7.85417180E-09
  1 219 7.42639413E-09
  1 220 7.03270475E-09
  1 221 6.78794650E-09
  1 222 6.47605549E-09
  1 223 5.97915556E-09
  1 224 5.67270420E-09
  1 225 5.57207837E-09
  1 226 5.43785790E-09
  1 227 5.38078620E-09
  1 228 5.41567748E-09
  1 229 5.88405023E-09
  1 230 5.97232633E-09
  1 231 5.81989075E-09
  1 232 5.64500174E-09
  1 233 5.63912642E-09
  1 234 5.48683314E-09
  1 235 5.38250057E-09
  1 236 5.36047651E-09
  1 237 5.46804012E-09
  1 238 5.37502977E-09
  1 239 5.59736343E-09
  1 240 5.70017096E-09
  1 241 6.01556356E-09
  1 242 6.09999387E-09
  1 243 5.88945401E-09
  1 244 5.57459670E-09
  1 245 6.08362495E-09
  1 246 6.49694007E-09
  1 247 6.73878527E-09
  1 248 6.92534994E-09
  1 249 6.81876667E-09
  1 250 6.78475884E-09
  1 251 6.90248374E-09
  1 252 6.78876322E-09
  1 253 6.48248148E-09
  1 254 6.75059301E-09
  1 255 6.76474021E-09
  1 256 6.69808444E-09
  1 257 6.51211725E-09
  1 258 6.64621744E-09
  1 259 6.65974993E-09
  1 260 6.57180569E-09
  1 261 6.10578999E-09
  1 262 5.75443974E-09
  1 263 5.31165411E-09
  1 264 5.40971481E-09
  1 265 5.58355244E-09
  1 266 5.45103840E-09
  1 267 5.65279627E-09
  1 268 5.49567139E-09
  1 269 5.44878603E-09
  1 270 5.13961915E-09
  1 271 4.82582084E-09
  1 272 4.59332402E-09
  1 273 4.45653118E-09
  1 274 4.29389626E-09
  1 275 3.95178258E-09
  1 276 3.94066170E-09
  1 277 3.43580323E-09
  1 278 3.39102557E-09
  1 279 3.34233122E-09
  1 280 3.32930012E-09
  1 281 3.01207192E-09
  1 282 2.91502346E-09
  1 283 2.84415409E-09
  1 284 2.82904488E-09
  1 285 3.10644117E-09
  1 286 3.05144381E-09
  1 287 3.55865954E-09
  1 288 3.58878079E-09
  1 289 3.58284467E-09
  1 290 3.34518371E-09
  1 291 3.40718058E-09
  1 292 3.44393940E-09
  1 293 3.45966159E-09
  1 294 3.31634636E-09
  1 295 3.26450855E-09
  1 296 3.56217599E-09
  1 297 3.13816747E-09
  1 298 3.01973094E-09
  1 299 2.94462652E-09
  1 300 3.27404525E-09
  1 301 1.25301165E-08
  1 302 1.20448851E-08
  1 303 1.22756154E-08
  1 304 1.20153470E-08
  1 305 1.16530386E-08
  1 306 1.16400465E-08
  1 307 1.14649702E-08
  1 308 1.09387190E-08
  1 309 1.05325069E-08
  1 310 1.03972336E-08
  1 311 9.83453034E-09
  1 312 9.55005842E-09
  1 313 8.77849904E-09
  1 314 8.10356486E-09
  1 315 7.69213043E-09
  1 316 7.18834256E-09
  1 317 6.69268534E-09
  1 318 6.43075988E-09
  1 319 6.27830064E-09
  1 320 6.01349912E-09
  1 321 5.78975356E-09
  1 322 5.36037693E-09
  1 323 4.94891333E-09
  1 324 5.10191383E-09
  1 325 5.41096548E-09
  1 326 5.44721166E-09
  1 327 5.39603524E-09
  1 328 5.29079573E-09
  1 329 5.44676229E-09
  1 330 5.32799474E-09
  1 331 5.12977658E-09
  1 332 4.88896994E-09
  1 333 4.92031153E-09
  1 334 4.93046755E-09
  1 335 4.92982076E-09
  1 336 5.05291638E-09
  1 337 5.27500769E-09
  1 338 5.31042003E-09
  1 339 5.51878745E-09
  1 340 5.60081346E-09
  1 341 5.82851752E-09
  1 342 5.97394312E-09
  1 343 5.99440407E-09
  1 344 5.85187008E-09
  1 345 6.28205216E-09
  1 346 6.51633066E-09
  1 347 6.66420608E-09
  1 348 6.67927675E-09
  1 349 6.58484232E-09
  1 350 6.71494131E-09
  1 351 6.75576404E-09
  1 352 6.60302488E-09
  1 353 6.29414352E-09
  1 354 6.61059374E-09
  1 355 6.57180884E-09
  1 356 6.44094011E-09
  1 357 6.08159246E-09
  1 358 6.00097617E-09
  1 359 5.98544074E-09
  1 360 6.01294653E-09
  1 361 5.74222409E-09
  1 362 5.71928773E-09
  1 363 5.56550907E-09
  1 364 5.73650743E-09
  1 365 5.72714461E-09
  1 366 5.42310387E-09
  1 367 5.51148163E-09
  1 368 5.47917968E-09
  1 369 5.38315973E-09
  1 370 5.00755599E-09
  1 371 4.79173539E-09
  1 372 4.63491778E-09
  1 373 4.49842715E-09
  1 374 4.41591847E-09
  1 375 4.02505008E-09
  1 376 4.05667699E-09
  1 377 3.72165850E-09
  1 378 3.56688577E-09
  1 379 3.30681571E-09
  1 380 3.30005291E-09
  1 381 3.01951766E-09
  1 382 3.08135453E-09
  1 383 3.14150894E-09
  1 384 3.24416269E-09
  1 385 3.45728257E-09
  1 386 3.19781382E-09
  1 387 3.53090106E-09
  1 388 3.35051402E-09
  1 389 3.21526753E-09
  1 390 3.00476846E-09
  1 391 3.14224935E-09
  1 392 3.33352322E-09
  1 393 3.44064407E-09
  1 394 3.16265402E-09
  1 395 2.90514346E-09
  1 396 3.08679395E-09
  1 397 2.70498438E-09
  1 398 2.52234395E-09
  1 399 2.28880076E-09
  1 400 2.58545103E-09
  1 401 1.18090048E-08
  1 402 1.13493944E-08
  1 403 1.15900899E-08
  1 404 1.11723978E-08
  1 405 1.04953344E-08
  1 406 1.01502822E-08
  1 407 9.87331728E-09
  1 408 9.39532737E-09
  1 409 8.88985834E-09
  1 410 8.62516238E-09
  1 411 7.84778425E-09
  1 412 7.47942390E-09
  1 413 6.76626156E-09
  1 414 6.26107224E-09
  1 415 6.12671233E-09
  1 416 5.98910580E-09
  1 417 5.82875403E-09
  1 418 5.69686540E-09
  1 419 5.50381448E-09
  1 420 5.11947243E-09
  1 421 4.94047033E-09
  1 422 4.85409362E-09
  1 423 4.59937931E-09
  1 424 4.83485900E-09
  1 425 5.12334846E-09
  1 426 4.91712492E-09
  1 427 4.68107484E-09
  1 428 4.54815296E-09
  1 429 4.80966801E-09
  1 430 4.72689441E-09
  1 431 4.67825989E-09
  1 432 4.59675555E-09
  1 433 4.75070059E-09
  1 434 4.81478602E-09
  1 435 4.86588020E-09
  1 436 5.01154246E-09
  1 437 5.29873164E-09
  1 438 5.17435341E-09
  1 439 5.20022076E-09
  1 440 5.20420437E-09
  1 441 5.59562177E-09
  1 442 5.88653486E-09
  1 443 5.79812246E-09
  1 444 5.55492328E-09
  1 445 5.95712619E-09
  1 446 6.16851823E-09
  1 447 6.44755119E-09
  1 448 6.54173992E-09
  1 449 6.27261413E-09
  1 450 6.13922420E-09
  1 451 6.15461195E-09
  1 452 6.03114334E-09
  1 453 5.75411197E-09
  1 454 6.20327667E-09
  1 455 6.19827083E-09
  1 456 5.90892946E-09
  1 457 5.59638564E-09
  1 458 5.69758736E-09
  1 459 5.83864025E-09
  1 460 6.05918400E-09
  1 461 5.92190560E-09
  1 462 5.82476836E-09
  1 463 5.63350334E-09
  1 464 5.78276964E-09
  1 465 5.85651860E-09
  1 466 5.57075211E-09
  1 467 5.67432180E-09
  1 468 5.61264084E-09
  1 469 5.63331576E-09
  1 470 5.23874309E-09
  1 471 5.02905290E-09
  1 472 4.94478950E-09
  1 473 4.75439599E-09
  1 474 4.67543181E-09
  1 475 4.43848980E-09
  1 476 4.40103571E-09
  1 477 3.89541886E-09
  1 478 3.72292419E-09
  1 479 3.50996201E-09
  1 480 3.38470250E-09
  1 481 3.14439573E-09
  1 482 3.33111790E-09
  1 483 3.31353687E-09
  1 484 3.22996207E-09
  1 485 3.25305707E-09
  1 486 2.84126848E-09
  1 487 3.06535647E-09
  1 488 2.99498740E-09
  1 489 2.93977170E-09
  1 490 2.88810877E-09
  1 491 3.18686571E-09
  1 492 3.24161620E-09
  1 493 3.19335082E-09
  1 494 2.85578062E-09
  1 495 2.65639551E-09
  1 496 2.83795118E-09
  1 497 2.42561765E-09
  1 498 2.24226812E-09
  1 499 2.12393493E-09
  1 500 2.61298455E-09
  1 501 1.06311735E-08
  1 502 1.00755294E-08
  1 503 1.00784293E-08
  1 504 9.47694724E-09
  1 505 8.77424498E-09
  1 506 8.36820300E-09
  1 507 7.93830008E-09
  1 508 7.35224799E-09
  1 509 6.79046408E-09
  1 510 6.50125863E-09
  1 511 5.90995201E-09
  1 512 5.87586046E-09
  1 513 5.61582182E-09
  1 514 5.47162470E-09
  1 515 5.55532710E-09
  1 516 5.40707135E-09
  1 517 5.08342214E-09
  1 518 4.84126214E-09
  1 519 4.71651037E-09
  1 520 4.44299725E-09
  1 521 4.38630401E-09
  1 522 4.34985082E-09
  1 523 4.29531194E-09
  1 524 4.48772123E-09
  1 525 4.63626444E-09
  1 526 4.52134401E-09
  1 527 4.47354623E-09
  1 528 4.37598387E-09
  1 529 4.57570954E-09
  1 530 4.58485523E-09
  1 531 4.61936640E-09
  1 532 4.59897659E-09
  1 533 4.76332369E-09
  1 534 4.78239946E-09
  1 535 4.77708414E-09
  1 536 4.84320507E-09
  1 537 4.95129379E-09
  1 538 4.74103525E-09
  1 539 4.85908972E-09
  1 540 4.96340124E-09
  1 541 5.46012196E-09
  1 542 5.71164586E-09
  1 543 5.64269413E-09
  1 544 5.43546562E-09
  1 545 5.78664295E-09
  1 546 5.86330906E-09
  1 547 5.85634409E-09
  1 548 5.78747857E-09
  1 549 5.64738455E-09
  1 550 5.73776112E-09
  1 551 5.98807272E-09
  1 552 6.09001578E-09
  1 553 5.93115844E-09
  1 554 6.10111788E-09
  1 555 6.04308502E-09
  1 556 5.79026247E-09
  1 557 5.62728185E-09
  1 558 5.96766613E-09
  1 559 6.23235700E-09
  1 560 6.43824286E-09
  1 561 6.35621022E-09
  1 562 6.39754818E-09
  1 563 6.24241141E-09
  1 564 6.39220582E-09
  1 565 6.37712119E-09
  1 566 6.09476738E-09
  1 567 6.11565487E-09
  1 568 5.83454286E-09
  1 569 5.80216026E-09
  1 570 5.54829857E-09
  1 571 5.37682304E-09
  1 572 5.16883220E-09
  1 573 4.85233260E-09
  1 574 4.62627126E-09
  1 575 4.28195246E-09
  1 576 4.29226978E-09
  1 577 3.86039769E-09
  1 578 3.56860411E-09
  1 579 3.23660101E-09
  1 580 3.35486929E-09
  1 581 3.17672393E-09
  1 582 3.09358899E-09
  1 583 2.89234498E-09
  1 584 2.73942387E-09
  1 585 2.71416723E-09
  1 586 2.41043827E-09
  1 587 2.88398599E-09
  1 588 2.95197711E-09
  1 589 3.09346089E-09
  1 590 2.99373932E-09
  1 591 3.01709610E-09
  1 592 3.08445987E-09
  1 593 3.13635277E-09
  1 594 2.77696379E-09
  1 595 2.47217500E-09
  1 596 2.54901200E-09
  1 597 2.16994505E-09
  1 598 2.13682237E-09
  1 599 2.18132812E-09
  1 600 2.79133874E-09
  1 601 8.93927341E-09
  1 602 8.11973744E-09
  1 603 7.98556256E-09
  1 604 7.39830521E-09
  1 605 6.69476179E-09
  1 606 6.31862753E-09
  1 607 6.04966439E-09
  1 608 5.70680290E-09
  1 609 5.29689271E-09
  1 610 5.27222384E-09
  1 611 4.97628359E-09
  1 612 5.18461380E-09
  1 613 5.00532868E-09
  1 614 4.85790896E-09
  1 615 4.78476945E-09
  1 616 4.62461636E-09
  1 617 4.41457743E-09
  1 618 4.21645913E-09
  1 619 4.13965484E-09
  1 620 3.98939067E-09
  1 621 4.13388224E-09
  1 622 4.16732687E-09
  1 623 3.96282672E-09
  1 624 4.18178735E-09
  1 625 4.49235856E-09
  1 626 4.36643217E-09
  1 627 4.32445375E-09
  1 628 4.28050109E-09
  1 629 4.66587608E-09
  1 630 4.65169036E-09
  1 631 4.65746171E-09
  1 632 4.54544646E-09
  1 633 4.67192002E-09
  1 634 4.65329591E-09
  1 635 4.64345093E-09
  1 636 4.69823392E-09
  1 637 4.89285706E-09
  1 638 4.92360149E-09
  1 639 5.17061080E-09
  1 640 5.30829386E-09
  1 641 5.65040764E-09
  1 642 5.69476608E-09
  1 643 5.45876768E-09
  1 644 5.21830289E-09
  1 645 5.38306616E-09
  1 646 5.50932353E-09
  1 647 5.69207749E-09
  1 648 5.77737762E-09
  1 649 5.71482195E-09
  1 650 5.91852255E-09
  1 651 6.05882310E-09
  1 652 6.04347886E-09
  1 653 5.90388690E-09
  1 654 6.27400546E-09
  1 655 6.36724316E-09
  1 656 6.28053935E-09
  1 657 6.12361343E-09
  1 658 6.53546733E-09
  1 659 6.87171038E-09
  1 660 7.14837421E-09
  1 661 7.09347595E-09
  1 662 7.06639123E-09
  1 663 6.92986289E-09
  1 664 7.01942069E-09
  1 665 6.84762923E-09
  1 666 6.39560854E-09
  1 667 6.43151516E-09
  1 668 6.15968903E-09
  1 669 5.98772917E-09
  1 670 5.53192141E-09
  1 671 5.07058870E-09
  1 672 4.75767595E-09
  1 673 4.56497514E-09
  1 674 4.49592737E-09
  1 675 4.19081307E-09
  1 676 4.13352761E-09
  1 677 3.66680933E-09
  1 678 3.59728298E-09
  1 679 3.33322302E-09
  1 680 3.21745044E-09
  1 681 2.75945225E-09
  1 682 2.68757940E-09
  1 683 2.52788928E-09
  1 684 2.49647876E-09
  1 685 2.67614095E-09
  1 686 2.55928437E-09
  1 687 3.14201642E-09
  1 688 3.09273019E-09
  1 689 3.11866572E-09
  1 690 2.95753339E-09
  1 691 2.98599236E-09
  1 692 3.01266673E-09
  1 693 2.84878971E-09
  1 694 2.49868502E-09
  1 695 2.31810019E-09
  1 696 2.54946922E-09
  1 697 2.32770837E-09
  1 698 2.38360875E-09
  1 699 2.55096711E-09
  1 700 3.21801258E-09
  1 701 6.88863901E-09
  1 702 6.23494672E-09
  1 703 6.23116072E-09
  1 704 5.81578553E-09
  1 705 5.39751163E-09
  1 706 5.32785045E-09
  1 707 5.13891111E-09
  1 708 4.83402318E-09
  1 709 4.52311722E-09
  1 710 4.66255945E-09
  1 711 4.46230138E-09
  1 712 4.67825453E-09
  1 713 4.41535194E-09
  1 714 4.19616253E-09
  1 715 4.12642063E-09
  1 716 4.00881488E-09
  1 717 3.84115118E-09
  1 718 3.82402698E-09
  1 719 3.89117332E-09
  1 720 3.93616334E-09
  1 721 4.15307025E-09
  1 722 4.26473349E-09
  1 723 4.07737115E-09
  1 724 4.13936156E-09
  1 725 4.40305921E-09
  1 726 4.26756180E-09
  1 727 4.26269748E-09
  1 728 4.12248010E-09
  1 729 4.46825452E-09
  1 730 4.47073659E-09
  1 731 4.42558909E-09
  1 732 4.31834660E-09
  1 733 4.48046869E-09
  1 734 4.59376226E-09
  1 735 4.61596558E-09
  1 736 4.86971032E-09
  1 737 5.14801715E-09
  1 738 4.98597270E-09
  1 739 4.93360833E-09
  1 740 4.91918227E-09
  1 741 5.32045574E-09
  1 742 5.41780985E-09
  1 743 5.14355911E-09
  1 744 4.97595348E-09
  1 745 5.31708959E-09
  1 746 5.50201230E-09
  1 747 5.77468659E-09
  1 748 5.87568870E-09
  1 749 5.90878634E-09
  1 750 6.16495821E-09
  1 751 6.56941415E-09
  1 752 6.72815656E-09
  1 753 6.62670492E-09
  1 754 6.94521759E-09
  1 755 7.06858654E-09
  1 756 7.11930704E-09
  1 757 7.02473785E-09
  1 758 7.36699558E-09
  1 759 7.69549708E-09
  1 760 7.96596207E-09
  1 761 7.88139607E-09
  1 762 7.69107080E-09
  1 763 7.27869300E-09
  1 764 7.11957444E-09
  1 765 6.93380034E-09
  1 766 6.50787069E-09
  1 767 6.44791339E-09
  1 768 6.11389734E-09
  1 769 5.85123917E-09
  1 770 5.31391605E-09
  1 771 4.93286562E-09
  1 772 4.68536180E-09
  1 773 4.48485114E-09
  1 774 4.40320491E-09
  1 775 4.11112993E-09
  1 776 4.01556466E-09
  1 777 3.43019041E-09
  1 778 3.23574492E-09
  1 779 2.86857641E-09
  1 780 2.87338214E-09
  1 781 2.60878099E-09
  1 782 2.73907181E-09
  1 783 2.67888542E-09
  1 784 2.70849566E-09
  1 785 3.00607719E-09
  1 786 2.96071493E-09
  1 787 3.33974844E-09
  1 788 3.14665626E-09
  1 789 3.09830678E-09
  1 790 3.02744422E-09
  1 791 3.04734254E-09
  1 792 3.02023434E-09
  1 793 2.90723889E-09
  1 794 2.62320738E-09
  1 795 2.55634049E-09
  1 796 2.87158739E-09
  1 797 2.85491942E-09
  1 798 2.93414388E-09
  1 799 2.98573903E-09
  1 800 3.56717516E-09
  1 801 5.39525982E-09
  1 802 4.97446975E-09
  1 803 5.17347189E-09
  1 804 4.82757490E-09
  1 805 4.41434780E-09
  1 806 4.34658425E-09
  1 807 4.35243777E-09
  1 808 4.25325691E-09
  1 809 4.06531373E-09
  1 810 4.29216111E-09
  1 811 4.08403083E-09
  1 812 4.26274832E-09
  1 813 3.93587246E-09
  1 814 3.80635561E-09
  1 815 3.96929795E-09
  1 816 4.09019366E-09
  1 817 4.13924976E-09
  1 818 4.23794075E-09
  1 819 4.38377853E-09
  1 820 4.41939534E-09
  1 821 4.47416603E-09
  1 822 4.36268823E-09
  1 823 4.05300353E-09
  1 824 4.10842476E-09
  1 825 4.32627450E-09
  1 826 4.09194776E-09
  1 827 3.92783312E-09
  1 828 3.71313374E-09
  1 829 4.08677181E-09
  1 830 4.10811685E-09
  1 831 4.25237725E-09
  1 832 4.30550574E-09
  1 833 4.59325419E-09
  1 834 4.70717754E-09
  1 835 4.75427046E-09
  1 836 4.82263479E-09
  1 837 4.91077267E-09
  1 838 4.70357063E-09
  1 839 4.77777846E-09
  1 840 4.86671105E-09
  1 841 5.37756242E-09
  1 842 5.58293506E-09
  1 843 5.33200411E-09
  1 844 5.03248864E-09
  1 845 5.26304314E-09
  1 846 5.58175846E-09
  1 847 6.17064350E-09
  1 848 6.42586905E-09
  1 849 6.64264369E-09
  1 850 7.15175839E-09
  1 851 7.59056428E-09
  1 852 7.59294511E-09
  1 853 7.34938363E-09
  1 854 7.77620475E-09
  1 855 8.01367383E-09
  1 856 7.87279583E-09
  1 857 7.80867107E-09
  1 858 8.14656548E-09
  1 859 8.35546820E-09
  1 860 8.31426566E-09
  1 861 7.98021857E-09
  1 862 7.63282015E-09
  1 863 7.11809051E-09
  1 864 7.04870772E-09
  1 865 6.85801733E-09
  1 866 6.43407812E-09
  1 867 6.35117020E-09
  1 868 5.94086601E-09
  1 869 5.71213869E-09
  1 870 5.21725985E-09
  1 871 4.76429633E-09
  1 872 4.59275572E-09
  1 873 4.34964409E-09
  1 874 4.05938053E-09
  1 875 3.63839958E-09
  1 876 3.52436028E-09
  1 877 3.07030534E-09
  1 878 3.06624013E-09
  1 879 2.82137149E-09
  1 880 2.92629563E-09
  1 881 2.68532100E-09
  1 882 2.95393298E-09
  1 883 3.15689484E-09
  1 884 3.32513152E-09
  1 885 3.43129540E-09
  1 886 3.13150306E-09
  1 887 3.48448452E-09
  1 888 3.38391258E-09
  1 889 3.42177969E-09
  1 890 3.28961314E-09
  1 891 3.32755664E-09
  1 892 3.46405569E-09
  1 893 3.33294162E-09
  1 894 3.19473878E-09
  1 895 3.20644598E-09
  1 896 3.57486353E-09
  1 897 3.40956190E-09
  1 898 3.41629904E-09
  1 899 3.46387157E-09
  1 900 4.00406407E-09
  1 901 4.45271545E-09
  1 902 4.07554906E-09
  1 903 4.35664583E-09
  1 904 4.12803659E-09
  1 905 3.75727215E-09
  1 906 3.77221951E-09
  1 907 3.84731968E-09
  1 908 3.88526860E-09
  1 909 3.66971021E-09
  1 910 3.81464512E-09
  1 911 3.60091502E-09
  1 912 3.96935137E-09
  1 913 4.08564649E-09
  1 914 4.21765473E-09
  1 915 4.55603829E-09
  1 916 4.61800759E-09
  1 917 4.53386641E-09
  1 918 4.50590993E-09
  1 919 4.53158489E-09
  1 920 4.30202759E-09
  1 921 4.24620876E-09
  1 922 4.09491529E-09
  1 923 3.73647959E-09
  1 924 3.77721191E-09
  1 925 3.91502559E-09
  1 926 3.62327751E-09
  1 927 3.57575843E-09
  1 928 3.61961729E-09
  1 929 4.21937862E-09
  1 930 4.26750094E-09
  1 931 4.46212359E-09
  1 932 4.51653041E-09
  1 933 4.69514668E-09
  1 934 4.77398383E-09
  1 935 4.76213873E-09
  1 936 4.89921609E-09
  1 937 5.06268200E-09
  1 938 4.99437578E-09
  1 939 5.12593139E-09
  1 940 5.19471268E-09
  1 941 5.56736423E-09
  1 942 5.63043162E-09
  1 943 5.39103946E-09
  1 944 5.43252634E-09
  1 945 5.96782761E-09
  1 946 6.54317197E-09
  1 947 7.27837313E-09
  1 948 7.68954905E-09
  1 949 7.76709801E-09
  1 950 7.90463638E-09
  1 951 8.14611634E-09
  1 952 8.28154713E-09
  1 953 8.22844639E-09
  1 954 8.45549698E-09
  1 955 8.59989795E-09
  1 956 8.40982244E-09
  1 957 8.13676640E-09
  1 958 8.29001189E-09
  1 959 8.24661764E-09
  1 960 8.12085815E-09
  1 961 7.85989612E-09
  1 962 7.61198897E-09
  1 963 7.25785846E-09
  1 964 7.18631327E-09
  1 965 6.89558334E-09
  1 966 6.31281254E-09
  1 967 6.15984598E-09
  1 968 5.76276165E-09
  1 969 5.51493802E-09
  1 970 5.00125820E-09
  1 971 4.51823861E-09
  1 972 4.15030041E-09
  1 973 3.78828103E-09
  1 974 3.66955495E-09
  1 975 3.46150385E-09
  1 976 3.52277743E-09
  1 977 3.13513042E-09
  1 978 3.11872712E-09
  1 979 3.05743727E-09
  1 980 3.43345623E-09
  1 981 3.35314535E-09
  1 982 3.56466143E-09
  1 983 3.52612341E-09
  1 984 3.56176692E-09
  1 985 3.72922921E-09
  1 986 3.51597652E-09
  1 987 4.00224353E-09
  1 988 3.95276838E-09
  1 989 4.06228851E-09
  1 990 4.02079347E-09
  1 991 3.89713115E-09
  1 992 4.04598515E-09
  1 993 4.18517454E-09
  1 994 4.01795317E-09
  1 995 3.98232589E-09
  1 996 4.11793257E-09
  1 997 3.82767820E-09
  1 998 3.76336473E-09
  1 999 3.74405566E-09
  1 1000 4.22577527E-09
  1 1001 3.87227231E-09
  1 1002 3.52406269E-09
  1 1003 3.74656852E-09
  1 1004 3.52368983E-09
  1 1005 3.19369929E-09
  1 1006 3.33154567E-09
  1 1007 3.43562034E-09
  1 1008 3.54586487E-09
  1 1009 3.48507143E-09
  1 1010 4.00269110E-09
  1 1011 4.12303741E-09
  1 1012 4.52441465E-09
  1 1013 4.40875724E-09
  1 1014 4.32677698E-09
  1 1015 4.38960437E-09
  1 1016 4.29409744E-09
  1 1017 4.05188978E-09
  1 1018 3.97192524E-09
  1 1019 3.87386123E-09
  1 1020 3.67312401E-09
  1 1021 3.72546267E-09
  1 1022 3.67906301E-09
  1 1023 3.40652409E-09
  1 1024 3.49647115E-09
  1 1025 3.78729969E-09
  1 1026 3.77325574E-09
  1 1027 3.86886998E-09
  1 1028 3.90396203E-09
  1 1029 4.50611352E-09
  1 1030 4.57891181E-09
  1 1031 4.67935406E-09
  1 1032 4.70345109E-09
  1 1033 4.92385842E-09
  1 1034 5.01546752E-09
  1 1035 5.14501516E-09
  1 1036 5.37983123E-09
  1 1037 5.57678644E-09
  1 1038 5.48231854E-09
  1 1039 5.56178694E-09
  1 1040 5.68397067E-09
  1 1041 6.18468190E-09
  1 1042 6.47730039E-09
  1 1043 6.50518252E-09
  1 1044 6.78559699E-09
  1 1045 7.40339461E-09
  1 1046 7.91053486E-09
  1 1047 8.37110969E-09
  1 1048 8.41287002E-09
  1 1049 8.41795158E-09
  1 1050 8.67481425E-09
  1 1051 8.83341680E-09
  1 1052 8.78018150E-09
  1 1053 8.52641779E-09
  1 1054 8.68216739E-09
  1 1055 8.72105289E-09
  1 1056 8.35114772E-09
  1 1057 7.95042974E-09
  1 1058 8.10843021E-09
  1 1059 8.21916385E-09
  1 1060 8.15795446E-09
  1 1061 7.92270836E-09
  1 1062 7.57214425E-09
  1 1063 7.10031332E-09
  1 1064 6.92775454E-09
  1 1065 6.61001553E-09
  1 1066 6.03460340E-09
  1 1067 5.95410906E-09
  1 1068 5.47447208E-09
  1 1069 5.12289082E-09
  1 1070 4.60861837E-09
  1 1071 4.22737189E-09
  1 1072 4.00450735E-09
  1 1073 3.87611923E-09
  1 1074 3.90147563E-09
  1 1075 3.67469896E-09
  1 1076 3.80934851E-09
  1 1077 3.54317272E-09
  1 1078 3.66370867E-09
  1 1079 3.51555154E-09
  1 1080 3.79553744E-09
  1 1081 3.63978636E-09
  1 1082 3.85389204E-09
  1 1083 3.85956091E-09
  1 1084 3.94024571E-09
  1 1085 4.22670210E-09
  1 1086 4.19814190E-09
  1 1087 4.66454741E-09
  1 1088 4.57458878E-09
  1 1089 4.62431892E-09
  1 1090 4.58646597E-09
  1 1091 4.58211961E-09
  1 1092 4.65875164E-09
  1 1093 4.52723314E-09
  1 1094 4.23138599E-09
  1 1095 4.17987739E-09
  1 1096 4.45307183E-09
  1 1097 4.18057648E-09
  1 1098 4.00494698E-09
  1 1099 3.92252216E-09
  1 1100 4.49201319E-09
  1 1101 3.21872689E-09
  1 1102 2.93643505E-09
  1 1103 3.18114865E-09
  1 1104 2.98053938E-09
  1 1105 2.80673356E-09
  1 1106 3.11521348E-09
  1 1107 3.39431979E-09
  1 1108 3.69534548E-09
  1 1109 3.74068763E-09
  1 1110 4.11497491E-09
  1 1111 3.94934779E-09
  1 1112 4.15549555E-09
  1 1113 3.96368415E-09
  1 1114 3.63811857E-09
  1 1115 3.52026940E-09
  1 1116 3.43825982E-09
  1 1117 3.27255194E-09
  1 1118 3.16734735E-09
  1 1119 3.22934689E-09
  1 1120 3.19983619E-09
  1 1121 3.37160163E-09
  1 1122 3.51920913E-09
  1 1123 3.43326687E-09
  1 1124 3.73254443E-09
  1 1125 4.05650568E-09
  1 1126 4.05582369E-09
  1 1127 4.30541659E-09
  1 1128 4.29374218E-09
  1 1129 4.86120805E-09
  1 1130 4.88802848E-09
  1 1131 4.98979826E-09
  1 1132 5.00113244E-09
  1 1133 5.31240421E-09
  1 1134 5.52369461E-09
  1 1135 5.66109779E-09
  1 1136 5.98965837E-09
  1 1137 6.24915214E-09
  1 1138 6.27319578E-09
  1 1139 6.48856465E-09
  1 1140 6.67329107E-09
  1 1141 7.40001389E-09
  1 1142 7.85215057E-09
  1 1143 7.91532570E-09
  1 1144 8.14918984E-09
  1 1145 8.46796708E-09
  1 1146 8.82159452E-09
  1 1147 9.27609748E-09
  1 1148 9.27158386E-09
  1 1149 9.10170465E-09
  1 1150 9.12258891E-09
  1 1151 9.10739655E-09
  1 1152 8.87071054E-09
  1 1153 8.54866411E-09
  1 1154 8.69876175E-09
  1 1155 8.71991731E-09
  1 1156 8.41504347E-09
  1 1157 8.15849004E-09
  1 1158 8.28140816E-09
  1 1159 8.17101276E-09
  1 1160 7.99949606E-09
  1 1161 7.53096897E-09
  1 1162 7.22195172E-09
  1 1163 6.79000977E-09
  1 1164 6.55984174E-09
  1 1165 6.23483444E-09
  1 1166 5.61894505E-09
  1 1167 5.40303052E-09
  1 1168 4.92998546E-09
  1 1169 4.78988372E-09
  1 1170 4.49339021E-09
  1 1171 4.44102225E-09
  1 1172 4.39246357E-09
  1 1173 4.22978614E-09
  1 1174 4.20900345E-09
  1 1175 4.05245952E-09
  1 1176 4.16855229E-09
  1 1177 3.79664319E-09
  1 1178 3.99977263E-09
  1 1179 3.96752680E-09
  1 1180 4.24593022E-09
  1 1181 3.98370438E-09
  1 1182 4.25522110E-09
  1 1183 4.38452640E-09
  1 1184 4.55433675E-09
  1 1185 4.75245520E-09
  1 1186 4.68437664E-09
  1 1187 5.19329176E-09
  1 1188 5.13920306E-09
  1 1189 5.03916257E-09
  1 1190 4.93588071E-09
  1 1191 4.84878987E-09
  1 1192 4.86649260E-09
  1 1193 4.77382338E-09
  1 1194 4.55359516E-09
  1 1195 4.51569866E-09
  1 1196 4.64522750E-09
  1 1197 4.41839096E-09
  1 1198 4.30838570E-09
  1 1199 4.31756897E-09
  1 1200 4.99226657E-09
  1 1201 2.59156408E-09
  1 1202 2.44255917E-09
  1 1203 2.90221371E-09
  1 1204 2.92823567E-09
  1 1205 2.89631037E-09
  1 1206 3.20144115E-09
  1 1207 3.41101231E-09
  1 1208 3.46660502E-09
  1 1209 3.16720702E-09
  1 1210 3.35438311E-09
  1 1211 3.14531744E-09
  1 1212 3.15890543E-09
  1 1213 2.82046013E-09
  1 1214 2.62017232E-09
  1 1215 2.76001390E-09
  1 1216 2.81593350E-09
  1 1217 2.73440395E-09
  1 1218 2.93718567E-09
  1 1219 3.22769158E-09
  1 1220 3.21368426E-09
  1 1221 3.50361054E-09
  1 1222 3.60289447E-09
  1 1223 3.52611105E-09
  1 1224 3.85698521E-09
  1 1225 4.31939836E-09
  1 1226 4.35067754E-09
  1 1227 4.59112450E-09
  1 1228 4.68235421E-09
  1 1229 5.21927427E-09
  1 1230 5.34037842E-09
  1 1231 5.63103752E-09
  1 1232 5.78880705E-09
  1 1233 6.12185812E-09
  1 1234 6.35689488E-09
  1 1235 6.55379890E-09
  1 1236 7.01562121E-09
  1 1237 7.20577218E-09
  1 1238 7.32985053E-09
  1 1239 7.62537688E-09
  1 1240 7.99251039E-09
  1 1241 8.84471555E-09
  1 1242 9.21248427E-09
  1 1243 9.01923473E-09
  1 1244 9.11965991E-09
  1 1245 9.52473287E-09
  1 1246 9.82024003E-09
  1 1247 1.01156959E-08
  1 1248 9.78609369E-09
  1 1249 9.46170926E-09
  1 1250 9.41085520E-09
  1 1251 9.33785590E-09
  1 1252 9.03324909E-09
  1 1253 8.68397727E-09
  1 1254 8.86308255E-09
  1 1255 8.96928770E-09
  1 1256 8.54227818E-09
  1 1257 8.02465264E-09
  1 1258 7.91682758E-09
  1 1259 7.67900373E-09
  1 1260 7.50671899E-09
  1 1261 7.15546248E-09
  1 1262 6.62846705E-09
  1 1263 6.23370408E-09
  1 1264 6.04212045E-09
  1 1265 5.72132403E-09
  1 1266 5.20546531E-09
  1 1267 5.26153917E-09
  1 1268 5.11844375E-09
  1 1269 5.29825518E-09
  1 1270 5.05009309E-09
  1 1271 4.88917676E-09
  1 1272 4.72427063E-09
  1 1273 4.49354729E-09
  1 1274 4.38453691E-09
  1 1275 4.20466286E-09
  1 1276 4.37236715E-09
  1 1277 4.22871222E-09
  1 1278 4.49378560E-09
  1 1279 4.40922588E-09
  1 1280 4.61433044E-09
  1 1281 4.43884286E-09
  1 1282 4.79854801E-09
  1 1283 4.95928371E-09
  1 1284 5.21654879E-09
  1 1285 5.51692394E-09
  1 1286 5.52049963E-09
  1 1287 5.90753617E-09
  1 1288 5.81091222E-09
  1 1289 5.70483768E-09