# File generated by Flopy version 3.6.0 on 06/24/2024 at 10:41:21.
BEGIN options
END options

BEGIN dimensions
  MAXBOUND  7355
END dimensions

BEGIN period  1
  1 1 2.54058371E-08
  1 2 2.42849692E-08
  1 3 2.24019039E-08
  1 4 2.02808690E-08
  1 5 1.83410674E-08
  1 6 1.64288883E-08
  1 7 1.46634414E-08
  1 8 1.38261239E-08
  1 9 1.31084793E-08
  1 10 1.27571125E-08
  1 11 1.29199915E-08
  1 12 1.27859182E-08
  1 13 1.27658449E-08
  1 14 1.31300904E-08
  1 15 1.33446641E-08
  1 16 1.38762800E-08
  1 17 1.42245315E-08
  1 18 1.41834330E-08
  1 19 1.42573037E-08
  1 20 1.46006337E-08
  1 21 1.60492477E-08
  1 22 1.58907410E-08
  1 23 1.52447818E-08
  1 24 1.51221921E-08
  1 25 1.62275824E-08
  1 26 1.77464332E-08
  1 27 1.89714507E-08
  1 28 2.10580237E-08
  1 29 2.17799776E-08
  1 30 2.33960815E-08
  1 31 2.59161095E-08
  1 32 2.86226478E-08
  1 33 2.99545939E-08
  1 34 2.98158303E-08
  1 35 2.87176721E-08
  1 36 2.82266762E-08
  1 37 2.64196286E-08
  1 38 2.45741360E-08
  1 39 2.41686835E-08
  1 40 2.31821824E-08
  1 41 2.11933406E-08
  1 42 1.91499649E-08
  1 43 1.78207498E-08
  1 44 1.70036244E-08
  1 45 1.69323958E-08
  1 46 1.66909078E-08
  1 47 1.61200601E-08
  1 48 1.53461628E-08
  1 49 1.47606797E-08
  1 50 1.38606268E-08
  1 51 1.36126643E-08
  1 52 1.40759392E-08
  1 53 1.40554208E-08
  1 54 1.42513791E-08
  1 55 1.46874617E-08
  1 56 1.47578389E-08
  1 57 1.45447190E-08
  1 58 1.35603475E-08
  1 59 1.30422737E-08
  1 60 1.27275835E-08
  1 61 1.25763987E-08
  1 62 1.25048226E-08
  1 63 1.21457420E-08
  1 64 1.21724676E-08
  1 65 1.32536257E-08
  1 66 1.39849803E-08
  1 67 1.46098166E-08
  1 68 1.46878237E-08
  1 69 1.56582930E-08
  1 70 1.57089484E-08
  1 71 1.61168157E-08
  1 72 1.68241429E-08
  1 73 1.80458776E-08
  1 74 1.83774600E-08
  1 75 1.90076543E-08
  1 76 1.98315550E-08
  1 77 2.02376763E-08
  1 78 2.00707158E-08
  1 79 1.92482613E-08
  1 80 1.79827634E-08
  1 81 1.77633627E-08
  1 82 1.76814276E-08
  1 83 1.69215571E-08
  1 84 1.53832532E-08
  1 85 1.35551765E-08
  1 86 1.23980644E-08
  1 87 1.14332359E-08
  1 88 1.07515466E-08
  1 89 9.95218539E-09
  1 90 9.51400101E-09
  1 91 9.53293430E-09
  1 92 9.27185054E-09
  1 93 9.04174331E-09
  1 94 9.13196275E-09
  1 95 1.03264907E-08
  1 96 1.18647442E-08
  1 97 1.27952876E-08
  1 98 1.36603215E-08
  1 99 1.44073862E-08
  1 100 1.51734400E-08
  1 101 2.71254225E-08
  1 102 2.50501847E-08
  1 103 2.34487254E-08
  1 104 2.06548966E-08
  1 105 1.90490384E-08
  1 106 1.67725027E-08
  1 107 1.45945933E-08
  1 108 1.36802671E-08
  1 109 1.33817419E-08
  1 110 1.28667686E-08
  1 111 1.31642113E-08
  1 112 1.31342635E-08
  1 113 1.27402943E-08
  1 114 1.29134039E-08
  1 115 1.29106615E-08
  1 116 1.32333541E-08
  1 117 1.36763836E-08
  1 118 1.38654195E-08
  1 119 1.40484196E-08
  1 120 1.41352054E-08
  1 121 1.54596104E-08
  1 122 1.60408999E-08
  1 123 1.57814527E-08
  1 124 1.51877239E-08
  1 125 1.60102988E-08
  1 126 1.77269008E-08
  1 127 1.82425457E-08
  1 128 1.96317726E-08
  1 129 2.12746311E-08
  1 130 2.26861517E-08
  1 131 2.52616522E-08
  1 132 2.75336388E-08
  1 133 2.87360245E-08
  1 134 2.87744342E-08
  1 135 2.84052879E-08
  1 136 2.80157696E-08
  1 137 2.66815213E-08
  1 138 2.47388025E-08
  1 139 2.36307307E-08
  1 140 2.32006985E-08
  1 141 2.10716389E-08
  1 142 1.92557062E-08
  1 143 1.77574688E-08
  1 144 1.65231085E-08
  1 145 1.62950394E-08
  1 146 1.60120863E-08
  1 147 1.59238361E-08
  1 148 1.52843408E-08
  1 149 1.43091889E-08
  1 150 1.35536792E-08
  1 151 1.30742365E-08
  1 152 1.38065413E-08
  1 153 1.37051572E-08
  1 154 1.34488846E-08
  1 155 1.39237913E-08
  1 156 1.44310448E-08
  1 157 1.44235689E-08
  1 158 1.40390265E-08
  1 159 1.30873854E-08
  1 160 1.29939207E-08
  1 161 1.25927617E-08
  1 162 1.27548238E-08
  1 163 1.24176703E-08
  1 164 1.21754954E-08
  1 165 1.32271082E-08
  1 166 1.40291878E-08
  1 167 1.48710418E-08
  1 168 1.45921265E-08
  1 169 1.55593644E-08
  1 170 1.63025621E-08
  1 171 1.64991459E-08
  1 172 1.70107392E-08
  1 173 1.78075366E-08
  1 174 1.80391841E-08
  1 175 1.82063695E-08
  1 176 1.87871384E-08
  1 177 1.95103051E-08
  1 178 1.96230756E-08
  1 179 1.93754728E-08
  1 180 1.81621610E-08
  1 181 1.75547564E-08
  1 182 1.83152461E-08
  1 183 1.75376639E-08
  1 184 1.60838248E-08
  1 185 1.42111605E-08
  1 186 1.28297625E-08
  1 187 1.18151167E-08
  1 188 1.09532155E-08
  1 189 9.93170479E-09
  1 190 9.41292228E-09
  1 191 9.22013414E-09
  1 192 9.07377966E-09
  1 193 8.88471327E-09
  1 194 9.08977683E-09
  1 195 9.62089370E-09
  1 196 1.11642124E-08
  1 197 1.23579844E-08
  1 198 1.34903612E-08
  1 199 1.46327496E-08
  1 200 1.55311928E-08
  1 201 2.86128728E-08
  1 202 2.54956155E-08
  1 203 2.36248372E-08
  1 204 2.12030754E-08
  1 205 1.94737238E-08
  1 206 1.74321491E-08
  1 207 1.48293717E-08
  1 208 1.35648457E-08
  1 209 1.35604009E-08
  1 210 1.30672670E-08
  1 211 1.33401322E-08
  1 212 1.33998309E-08
  1 213 1.29673817E-08
  1 214 1.29858967E-08
  1 215 1.29021033E-08
  1 216 1.28064138E-08
  1 217 1.30629940E-08
  1 218 1.34656720E-08
  1 219 1.36942926E-08
  1 220 1.43698587E-08
  1 221 1.50379841E-08
  1 222 1.62092635E-08
  1 223 1.63047679E-08
  1 224 1.60069221E-08
  1 225 1.65563116E-08
  1 226 1.76728944E-08
  1 227 1.82107125E-08
  1 228 1.89596745E-08
  1 229 2.04998777E-08
  1 230 2.23408952E-08
  1 231 2.47434099E-08
  1 232 2.66649056E-08
  1 233 2.84882364E-08
  1 234 2.83788472E-08
  1 235 2.76553592E-08
  1 236 2.72788530E-08
  1 237 2.64637420E-08
  1 238 2.53314827E-08
  1 239 2.36226960E-08
  1 240 2.27953468E-08
  1 241 2.10464590E-08
  1 242 1.93873893E-08
  1 243 1.80141218E-08
  1 244 1.67716955E-08
  1 245 1.59820455E-08
  1 246 1.55714591E-08
  1 247 1.53644043E-08
  1 248 1.51572459E-08
  1 249 1.40100165E-08
  1 250 1.34303869E-08
  1 251 1.27858335E-08
  1 252 1.35980552E-08
  1 253 1.39085450E-08
  1 254 1.33596717E-08
  1 255 1.36593706E-08
  1 256 1.40920798E-08
  1 257 1.41680641E-08
  1 258 1.42905772E-08
  1 259 1.35464802E-08
  1 260 1.32110823E-08
  1 261 1.30027990E-08
  1 262 1.29127424E-08
  1 263 1.27808719E-08
  1 264 1.23148951E-08
  1 265 1.32274490E-08
  1 266 1.39370490E-08
  1 267 1.45480908E-08
  1 268 1.47518722E-08
  1 269 1.53276984E-08
  1 270 1.63504537E-08
  1 271 1.64140288E-08
  1 272 1.70594415E-08
  1 273 1.75744064E-08
  1 274 1.78609048E-08
  1 275 1.76548823E-08
  1 276 1.79839564E-08
  1 277 1.86331259E-08
  1 278 1.93601107E-08
  1 279 1.92125755E-08
  1 280 1.85579666E-08
  1 281 1.78259186E-08
  1 282 1.83949018E-08
  1 283 1.81889511E-08
  1 284 1.65356787E-08
  1 285 1.45397039E-08
  1 286 1.32222859E-08
  1 287 1.20204702E-08
  1 288 1.09565933E-08
  1 289 9.89566569E-09
  1 290 9.35787772E-09
  1 291 8.74460933E-09
  1 292 8.69444199E-09
  1 293 8.78676134E-09
  1 294 8.95489324E-09
  1 295 9.25383309E-09
  1 296 1.04027218E-08
  1 297 1.20949975E-08
  1 298 1.32386969E-08
  1 299 1.44852983E-08
  1 300 1.58402745E-08
  1 301 2.88963032E-08
  1 302 2.60488429E-08
  1 303 2.36689195E-08
  1 304 2.13350706E-08
  1 305 1.93968978E-08
  1 306 1.75047667E-08
  1 307 1.49714935E-08
  1 308 1.31657184E-08
  1 309 1.30453221E-08
  1 310 1.28467844E-08
  1 311 1.26342732E-08
  1 312 1.27827895E-08
  1 313 1.26947518E-08
  1 314 1.26184648E-08
  1 315 1.25300116E-08
  1 316 1.20696793E-08
  1 317 1.19868560E-08
  1 318 1.22321121E-08
  1 319 1.26322618E-08
  1 320 1.34131679E-08
  1 321 1.42595150E-08
  1 322 1.54687967E-08
  1 323 1.61762929E-08
  1 324 1.60321639E-08
  1 325 1.64973006E-08
  1 326 1.72360619E-08
  1 327 1.76785982E-08
  1 328 1.83662857E-08
  1 329 1.96122533E-08
  1 330 2.14375988E-08
  1 331 2.33563204E-08
  1 332 2.53607997E-08
  1 333 2.70957556E-08
  1 334 2.74853918E-08
  1 335 2.67448306E-08
  1 336 2.59933465E-08
  1 337 2.58687502E-08
  1 338 2.54820206E-08
  1 339 2.34790007E-08
  1 340 2.25880336E-08
  1 341 2.08929179E-08
  1 342 1.96016484E-08
  1 343 1.81817172E-08
  1 344 1.72797081E-08
  1 345 1.62353218E-08
  1 346 1.56513369E-08
  1 347 1.49970841E-08
  1 348 1.49778198E-08
  1 349 1.42515783E-08
  1 350 1.36729126E-08
  1 351 1.29547146E-08
  1 352 1.35416988E-08
  1 353 1.38698703E-08
  1 354 1.38774792E-08
  1 355 1.37253302E-08
  1 356 1.39057371E-08
  1 357 1.39990755E-08
  1 358 1.38770445E-08
  1 359 1.38134088E-08
  1 360 1.36881163E-08
  1 361 1.34705341E-08
  1 362 1.33022212E-08
  1 363 1.31210377E-08
  1 364 1.28064360E-08
  1 365 1.33530352E-08
  1 366 1.39859387E-08
  1 367 1.42460208E-08
  1 368 1.49168133E-08
  1 369 1.50299672E-08
  1 370 1.62889656E-08
  1 371 1.63020266E-08
  1 372 1.71116095E-08
  1 373 1.76534790E-08
  1 374 1.80679707E-08
  1 375 1.78778719E-08
  1 376 1.78719482E-08
  1 377 1.81997668E-08
  1 378 1.90501956E-08
  1 379 1.97900044E-08
  1 380 1.92457028E-08
  1 381 1.85742021E-08
  1 382 1.88907867E-08
  1 383 1.91319999E-08
  1 384 1.70241242E-08
  1 385 1.50073382E-08
  1 386 1.36394232E-08
  1 387 1.23642134E-08
  1 388 1.12093953E-08
  1 389 9.97113956E-09
  1 390 9.38232440E-09
  1 391 8.53234347E-09
  1 392 8.23637080E-09
  1 393 8.44306552E-09
  1 394 8.84002945E-09
  1 395 9.19945843E-09
  1 396 1.00278590E-08
  1 397 1.18805548E-08
  1 398 1.30542806E-08
  1 399 1.42794535E-08
  1 400 1.57860514E-08
  1 401 2.97107193E-08
  1 402 2.76945323E-08
  1 403 2.46565972E-08
  1 404 2.26318230E-08
  1 405 2.03021282E-08
  1 406 1.82233675E-08
  1 407 1.60078658E-08
  1 408 1.37631714E-08
  1 409 1.29519144E-08
  1 410 1.31086794E-08
  1 411 1.24091808E-08
  1 412 1.25445688E-08
  1 413 1.25934803E-08
  1 414 1.28561876E-08
  1 415 1.27692841E-08
  1 416 1.21523533E-08
  1 417 1.17058664E-08
  1 418 1.17556740E-08
  1 419 1.19761170E-08
  1 420 1.28311173E-08
  1 421 1.40180619E-08
  1 422 1.54572620E-08
  1 423 1.66569064E-08
  1 424 1.66972957E-08
  1 425 1.70134091E-08
  1 426 1.76936899E-08
  1 427 1.82422874E-08
  1 428 1.86874059E-08
  1 429 1.98590035E-08
  1 430 2.13277631E-08
  1 431 2.30021705E-08
  1 432 2.51535685E-08
  1 433 2.65541535E-08
  1 434 2.72200194E-08
  1 435 2.67975313E-08
  1 436 2.58884168E-08
  1 437 2.57324377E-08
  1 438 2.58486260E-08
  1 439 2.40019187E-08
  1 440 2.28119572E-08
  1 441 2.18210202E-08
  1 442 2.08154342E-08
  1 443 1.89890752E-08
  1 444 1.78347503E-08
  1 445 1.69931837E-08
  1 446 1.62625218E-08
  1 447 1.53366233E-08
  1 448 1.48869937E-08
  1 449 1.45626743E-08
  1 450 1.40278438E-08
  1 451 1.36126060E-08
  1 452 1.39680361E-08
  1 453 1.40831527E-08
  1 454 1.43019665E-08
  1 455 1.40895375E-08
  1 456 1.40183250E-08
  1 457 1.40190886E-08
  1 458 1.33592784E-08
  1 459 1.35407289E-08
  1 460 1.37164352E-08
  1 461 1.38437529E-08
  1 462 1.39064006E-08
  1 463 1.37095835E-08
  1 464 1.34676341E-08
  1 465 1.35348218E-08
  1 466 1.41245003E-08
  1 467 1.39697687E-08
  1 468 1.46185459E-08
  1 469 1.49476994E-08
  1 470 1.57865231E-08
  1 471 1.61013846E-08
  1 472 1.69677905E-08
  1 473 1.75953519E-08
  1 474 1.79973890E-08
  1 475 1.76132192E-08
  1 476 1.76178010E-08
  1 477 1.78581937E-08
  1 478 1.82739981E-08
  1 479 1.96088541E-08
  1 480 1.98943533E-08
  1 481 1.90564017E-08
  1 482 1.91194535E-08
  1 483 1.94104195E-08
  1 484 1.75718497E-08
  1 485 1.53440561E-08
  1 486 1.37369639E-08
  1 487 1.26107439E-08
  1 488 1.13570864E-08
  1 489 1.00429482E-08
  1 490 9.28378474E-09
  1 491 8.46539142E-09
  1 492 7.76423502E-09
  1 493 7.86313230E-09
  1 494 8.38081167E-09
  1 495 8.84069467E-09
  1 496 9.91907570E-09
  1 497 1.15482069E-08
  1 498 1.28563165E-08
  1 499 1.40591699E-08
  1 500 1.54374109E-08
  1 501 2.97585397E-08
  1 502 2.86722570E-08
  1 503 2.57542197E-08
  1 504 2.33004096E-08
  1 505 2.10324952E-08
  1 506 1.89844906E-08
  1 507 1.65976160E-08
  1 508 1.42666701E-08
  1 509 1.29669158E-08
  1 510 1.26944600E-08
  1 511 1.23187854E-08
  1 512 1.22424916E-08
  1 513 1.23151807E-08
  1 514 1.26475418E-08
  1 515 1.29174198E-08
  1 516 1.21527357E-08
  1 517 1.13747740E-08
  1 518 1.13028003E-08
  1 519 1.13248243E-08
  1 520 1.18597947E-08
  1 521 1.33279881E-08
  1 522 1.49989939E-08
  1 523 1.67221089E-08
  1 524 1.71520052E-08
  1 525 1.70743042E-08
  1 526 1.77311906E-08
  1 527 1.82038366E-08
  1 528 1.87277143E-08
  1 529 1.94440559E-08
  1 530 2.04492253E-08
  1 531 2.20857017E-08
  1 532 2.39490821E-08
  1 533 2.59917962E-08
  1 534 2.63030052E-08
  1 535 2.63006754E-08
  1 536 2.52438659E-08
  1 537 2.46687635E-08
  1 538 2.56993283E-08
  1 539 2.43926025E-08
  1 540 2.30469331E-08
  1 541 2.21645852E-08
  1 542 2.17829315E-08
  1 543 1.97949486E-08
  1 544 1.77552765E-08
  1 545 1.69695456E-08
  1 546 1.60817384E-08
  1 547 1.56284715E-08
  1 548 1.47545922E-08
  1 549 1.44687874E-08
  1 550 1.42706971E-08
  1 551 1.40429587E-08
  1 552 1.43210429E-08
  1 553 1.44055352E-08
  1 554 1.44566634E-08
  1 555 1.44600058E-08
  1 556 1.41767842E-08
  1 557 1.39392886E-08
  1 558 1.32361601E-08
  1 559 1.31248445E-08
  1 560 1.33579783E-08
  1 561 1.37725539E-08
  1 562 1.42863860E-08
  1 563 1.42851539E-08
  1 564 1.42579338E-08
  1 565 1.40776832E-08
  1 566 1.45482378E-08
  1 567 1.40691476E-08
  1 568 1.45498384E-08
  1 569 1.51308906E-08
  1 570 1.57761477E-08
  1 571 1.59861879E-08
  1 572 1.64390604E-08
  1 573 1.73196301E-08
  1 574 1.78833235E-08
  1 575 1.77656284E-08
  1 576 1.77642877E-08
  1 577 1.81063760E-08
  1 578 1.83987922E-08
  1 579 1.96744157E-08
  1 580 2.04719644E-08
  1 581 1.99513940E-08
  1 582 1.98648240E-08
  1 583 2.00204906E-08
  1 584 1.86484084E-08
  1 585 1.63677748E-08
  1 586 1.41395118E-08
  1 587 1.30124098E-08
  1 588 1.17715406E-08
  1 589 1.06553470E-08
  1 590 9.48555218E-09
  1 591 8.78472384E-09
  1 592 7.84148502E-09
  1 593 7.75883682E-09
  1 594 8.26677692E-09
  1 595 8.84855370E-09
  1 596 1.01356797E-08
  1 597 1.15998334E-08
  1 598 1.33447561E-08
  1 599 1.46524538E-08
  1 600 1.64085972E-08
  1 601 2.93128384E-08
  1 602 2.92642948E-08
  1 603 2.63739089E-08
  1 604 2.37727849E-08
  1 605 2.18085148E-08
  1 606 1.98695168E-08
  1 607 1.70739593E-08
  1 608 1.47661763E-08
  1 609 1.30555117E-08
  1 610 1.25858077E-08
  1 611 1.22024743E-08
  1 612 1.19960917E-08
  1 613 1.21225289E-08
  1 614 1.22426901E-08
  1 615 1.26235494E-08
  1 616 1.24681827E-08
  1 617 1.13806931E-08
  1 618 1.06854593E-08
  1 619 1.06822559E-08
  1 620 1.12577243E-08
  1 621 1.24959122E-08
  1 622 1.41911867E-08
  1 623 1.61418143E-08
  1 624 1.74446054E-08
  1 625 1.70397021E-08
  1 626 1.74342523E-08
  1 627 1.79311213E-08
  1 628 1.85501683E-08
  1 629 1.90297825E-08
  1 630 1.98686189E-08
  1 631 2.09005745E-08
  1 632 2.29196049E-08
  1 633 2.49894417E-08
  1 634 2.58035809E-08
  1 635 2.57771673E-08
  1 636 2.53991568E-08
  1 637 2.46124104E-08
  1 638 2.55084562E-08
  1 639 2.51221622E-08
  1 640 2.42671973E-08
  1 641 2.29798119E-08
  1 642 2.26153166E-08
  1 643 2.12303576E-08
  1 644 1.84145425E-08
  1 645 1.69861987E-08
  1 646 1.64988418E-08
  1 647 1.60804113E-08
  1 648 1.53252733E-08
  1 649 1.49007560E-08
  1 650 1.44843747E-08
  1 651 1.47216729E-08
  1 652 1.49120189E-08
  1 653 1.49603545E-08
  1 654 1.49492612E-08
  1 655 1.50493605E-08
  1 656 1.46903907E-08
  1 657 1.40502316E-08
  1 658 1.34747794E-08
  1 659 1.31070765E-08
  1 660 1.32337687E-08
  1 661 1.35767615E-08
  1 662 1.48905651E-08
  1 663 1.52345813E-08
  1 664 1.57249864E-08
  1 665 1.53615748E-08
  1 666 1.51220971E-08
  1 667 1.48019371E-08
  1 668 1.50875835E-08
  1 669 1.55254695E-08
  1 670 1.62862225E-08
  1 671 1.61683826E-08
  1 672 1.62874676E-08
  1 673 1.73532199E-08
  1 674 1.79634462E-08
  1 675 1.82553469E-08
  1 676 1.84174401E-08
  1 677 1.86374533E-08
  1 678 1.90786818E-08
  1 679 1.99974122E-08
  1 680 2.10874715E-08
  1 681 2.10880123E-08
  1 682 2.08205948E-08
  1 683 2.12962046E-08
  1 684 1.98235758E-08
  1 685 1.76680839E-08
  1 686 1.49348947E-08
  1 687 1.34778020E-08
  1 688 1.19999157E-08
  1 689 1.09072653E-08
  1 690 9.76427992E-09
  1 691 8.97489142E-09
  1 692 8.05372968E-09
  1 693 7.68411844E-09
  1 694 7.91888030E-09
  1 695 8.64272144E-09
  1 696 9.78323264E-09
  1 697 1.13559311E-08
  1 698 1.29589887E-08
  1 699 1.50178581E-08
  1 700 1.64509238E-08
  1 701 2.88337060E-08
  1 702 2.99728366E-08
  1 703 2.73521458E-08
  1 704 2.42336202E-08
  1 705 2.22793424E-08
  1 706 2.07576578E-08
  1 707 1.82752950E-08
  1 708 1.54297559E-08
  1 709 1.38061422E-08
  1 710 1.29931474E-08
  1 711 1.26061814E-08
  1 712 1.19437959E-08
  1 713 1.19490538E-08
  1 714 1.22654548E-08
  1 715 1.24443078E-08
  1 716 1.24990375E-08
  1 717 1.15114748E-08
  1 718 1.04756990E-08
  1 719 1.02832780E-08
  1 720 1.08985508E-08
  1 721 1.20996167E-08
  1 722 1.36786561E-08
  1 723 1.52056784E-08
  1 724 1.70549616E-08
  1 725 1.69763161E-08
  1 726 1.71385601E-08
  1 727 1.78325609E-08
  1 728 1.81921706E-08
  1 729 1.84280206E-08
  1 730 1.90333165E-08
  1 731 1.98437442E-08
  1 732 2.14138724E-08
  1 733 2.37910560E-08
  1 734 2.51032894E-08
  1 735 2.51860484E-08
  1 736 2.49367852E-08
  1 737 2.44718916E-08
  1 738 2.45523737E-08
  1 739 2.54152434E-08
  1 740 2.51270782E-08
  1 741 2.38674071E-08
  1 742 2.34554007E-08
  1 743 2.22464862E-08
  1 744 1.95998272E-08
  1 745 1.74277759E-08
  1 746 1.67964644E-08
  1 747 1.65074837E-08
  1 748 1.61365468E-08
  1 749 1.52230128E-08
  1 750 1.44924343E-08
  1 751 1.50277364E-08
  1 752 1.53953235E-08
  1 753 1.51511514E-08
  1 754 1.52353841E-08
  1 755 1.51402554E-08
  1 756 1.48484935E-08
  1 757 1.39714980E-08
  1 758 1.32548135E-08
  1 759 1.30415293E-08
  1 760 1.32231227E-08
  1 761 1.33061512E-08
  1 762 1.45353730E-08
  1 763 1.57713471E-08
  1 764 1.64800464E-08
  1 765 1.63884729E-08
  1 766 1.54511131E-08
  1 767 1.51727514E-08
  1 768 1.48319580E-08
  1 769 1.51132503E-08
  1 770 1.57062329E-08
  1 771 1.59094581E-08
  1 772 1.54555650E-08
  1 773 1.63734541E-08
  1 774 1.68922977E-08
  1 775 1.75348177E-08
  1 776 1.80879376E-08
  1 777 1.80944885E-08
  1 778 1.86109039E-08
  1 779 1.97083194E-08
  1 780 2.07835153E-08
  1 781 2.11106101E-08
  1 782 2.08671631E-08
  1 783 2.08689280E-08
  1 784 1.98915675E-08
  1 785 1.82135746E-08
  1 786 1.55265622E-08
  1 787 1.36156755E-08
  1 788 1.20695164E-08
  1 789 1.08113672E-08
  1 790 9.70793679E-09
  1 791 8.95985512E-09
  1 792 8.16258063E-09
  1 793 7.64804545E-09
  1 794 7.71306586E-09
  1 795 8.23086282E-09
  1 796 9.35700096E-09
  1 797 1.09404161E-08
  1 798 1.26599579E-08
  1 799 1.46163275E-08
  1 800 1.66488851E-08
  1 801 2.68357589E-08
  1 802 2.89884684E-08
  1 803 2.80601290E-08
  1 804 2.45454147E-08
  1 805 2.22276697E-08
  1 806 2.09119450E-08
  1 807 1.89403038E-08
  1 808 1.62079946E-08
  1 809 1.42623139E-08
  1 810 1.32156702E-08
  1 811 1.26618892E-08
  1 812 1.18971193E-08
  1 813 1.16525987E-08
  1 814 1.21983914E-08
  1 815 1.24199133E-08
  1 816 1.22756671E-08
  1 817 1.15588314E-08
  1 818 1.07039107E-08
  1 819 1.00175675E-08
  1 820 1.05315043E-08
  1 821 1.17548594E-08
  1 822 1.31330769E-08
  1 823 1.45164670E-08
  1 824 1.62461798E-08
  1 825 1.70031134E-08
  1 826 1.71032434E-08
  1 827 1.72276177E-08
  1 828 1.79938565E-08
  1 829 1.78683905E-08
  1 830 1.84241398E-08
  1 831 1.90064009E-08
  1 832 2.01929518E-08
  1 833 2.25691921E-08
  1 834 2.41971555E-08
  1 835 2.50534585E-08
  1 836 2.46871836E-08
  1 837 2.45496888E-08
  1 838 2.39505133E-08
  1 839 2.52082819E-08
  1 840 2.59916469E-08
  1 841 2.56348048E-08
  1 842 2.44930210E-08
  1 843 2.37206245E-08
  1 844 2.11453733E-08
  1 845 1.88750547E-08
  1 846 1.77205676E-08
  1 847 1.71047260E-08
  1 848 1.69400559E-08
  1 849 1.60294669E-08
  1 850 1.50623869E-08
  1 851 1.52227791E-08
  1 852 1.59260575E-08
  1 853 1.58044543E-08
  1 854 1.54021268E-08
  1 855 1.53857275E-08
  1 856 1.49690701E-08
  1 857 1.42560957E-08
  1 858 1.33799475E-08
  1 859 1.30539999E-08
  1 860 1.34904564E-08
  1 861 1.36913322E-08
  1 862 1.47333677E-08
  1 863 1.64108672E-08
  1 864 1.75358121E-08
  1 865 1.77963823E-08
  1 866 1.64815536E-08
  1 867 1.60854984E-08
  1 868 1.52999436E-08
  1 869 1.50652173E-08
  1 870 1.55688439E-08
  1 871 1.57887006E-08
  1 872 1.54329826E-08
  1 873 1.59686698E-08
  1 874 1.66833794E-08
  1 875 1.74103573E-08
  1 876 1.80941688E-08
  1 877 1.87015071E-08
  1 878 1.89012344E-08
  1 879 1.99990621E-08
  1 880 2.15047266E-08
  1 881 2.21643167E-08
  1 882 2.15779551E-08
  1 883 2.13800002E-08
  1 884 2.04787168E-08
  1 885 1.89295907E-08
  1 886 1.67156793E-08
  1 887 1.45525140E-08
  1 888 1.27854250E-08
  1 889 1.10651157E-08
  1 890 9.97406184E-09
  1 891 9.08043016E-09
  1 892 8.32438975E-09
  1 893 7.90916026E-09
  1 894 7.88245586E-09
  1 895 8.16230434E-09
  1 896 9.15358420E-09
  1 897 1.06210349E-08
  1 898 1.24768799E-08
  1 899 1.43943174E-08
  1 900 1.67048778E-08
  1 901 2.48360106E-08
  1 902 2.76576870E-08
  1 903 2.80499017E-08
  1 904 2.49576917E-08
  1 905 2.20988983E-08
  1 906 2.10157039E-08
  1 907 1.94770854E-08
  1 908 1.70036578E-08
  1 909 1.45970235E-08
  1 910 1.33746916E-08
  1 911 1.27021305E-08
  1 912 1.18546306E-08
  1 913 1.13692392E-08
  1 914 1.19822817E-08
  1 915 1.25043237E-08
  1 916 1.22273613E-08
  1 917 1.15126338E-08
  1 918 1.08928619E-08
  1 919 1.00770767E-08
  1 920 1.01628088E-08
  1 921 1.12596866E-08
  1 922 1.24826562E-08
  1 923 1.40087377E-08
  1 924 1.54168163E-08
  1 925 1.65334902E-08
  1 926 1.68020948E-08
  1 927 1.68975950E-08
  1 928 1.75847996E-08
  1 929 1.74181986E-08
  1 930 1.79206680E-08
  1 931 1.84577881E-08
  1 932 1.89807589E-08
  1 933 2.09240702E-08
  1 934 2.31417754E-08
  1 935 2.48019734E-08
  1 936 2.44691452E-08
  1 937 2.46035897E-08
  1 938 2.39802766E-08
  1 939 2.50579879E-08
  1 940 2.62570756E-08
  1 941 2.63751864E-08
  1 942 2.57731144E-08
  1 943 2.50949827E-08
  1 944 2.29864973E-08
  1 945 2.08168471E-08
  1 946 1.89147376E-08
  1 947 1.78694543E-08
  1 948 1.74371989E-08
  1 949 1.66841433E-08
  1 950 1.57135999E-08
  1 951 1.58372126E-08
  1 952 1.64128441E-08
  1 953 1.67064756E-08
  1 954 1.61865393E-08
  1 955 1.60015975E-08
  1 956 1.54900154E-08
  1 957 1.47721588E-08
  1 958 1.36483332E-08
  1 959 1.35051455E-08
  1 960 1.38322004E-08
  1 961 1.43087134E-08
  1 962 1.55127483E-08
  1 963 1.74320769E-08
  1 964 1.90619099E-08
  1 965 1.97231617E-08
  1 966 1.80493309E-08
  1 967 1.72858512E-08
  1 968 1.65103658E-08
  1 969 1.55137834E-08
  1 970 1.58333203E-08
  1 971 1.59295498E-08
  1 972 1.57671696E-08
  1 973 1.61948560E-08
  1 974 1.69743277E-08
  1 975 1.75939142E-08
  1 976 1.85566388E-08
  1 977 1.98201993E-08
  1 978 1.95834119E-08
  1 979 1.99611529E-08
  1 980 2.20628059E-08
  1 981 2.35535481E-08
  1 982 2.30008993E-08
  1 983 2.21092382E-08
  1 984 2.13155609E-08
  1 985 1.99618055E-08
  1 986 1.80714006E-08
  1 987 1.60532751E-08
  1 988 1.40239596E-08
  1 989 1.17416055E-08
  1 990 1.02809341E-08
  1 991 9.50562008E-09
  1 992 8.85105663E-09
  1 993 8.35456430E-09
  1 994 8.28686504E-09
  1 995 8.50211013E-09
  1 996 9.16795334E-09
  1 997 1.05129317E-08
  1 998 1.24295284E-08
  1 999 1.44869769E-08
  1 1000 1.71528937E-08
  1 1001 2.34670362E-08
  1 1002 2.58343953E-08
  1 1003 2.72468822E-08
  1 1004 2.59772751E-08
  1 1005 2.28620844E-08
  1 1006 2.14156614E-08
  1 1007 2.04031224E-08
  1 1008 1.78936940E-08
  1 1009 1.54397163E-08
  1 1010 1.37832163E-08
  1 1011 1.31831408E-08
  1 1012 1.23916072E-08
  1 1013 1.17916200E-08
  1 1014 1.19521473E-08
  1 1015 1.26694211E-08
  1 1016 1.26355084E-08
  1 1017 1.17281690E-08
  1 1018 1.09227345E-08
  1 1019 1.03347547E-08
  1 1020 1.01830627E-08
  1 1021 1.01830627E-08
  1 1022 1.01830627E-08
  1 1023 1.01830627E-08
  1 1024 1.08836143E-08
  1 1025 1.20886370E-08
  1 1026 1.37904169E-08
  1 1027 1.51339498E-08
  1 1028 1.62275068E-08
  1 1029 1.65605356E-08
  1 1030 1.64969478E-08
  1 1031 1.69005958E-08
  1 1032 1.71429189E-08
  1 1033 1.73240302E-08
  1 1034 1.81604535E-08
  1 1035 1.84853849E-08
  1 1036 1.93144944E-08
  1 1037 2.16281840E-08
  1 1038 2.37842822E-08
  1 1039 2.43585574E-08
  1 1040 2.47807212E-08
  1 1041 2.41779320E-08
  1 1042 2.49982290E-08
  1 1043 2.61234104E-08
  1 1044 2.60816294E-08
  1 1045 2.61856144E-08
  1 1046 2.63346593E-08
  1 1047 2.47885410E-08
  1 1048 2.30191505E-08
  1 1049 2.04627476E-08
  1 1050 1.91032374E-08
  1 1051 1.80909956E-08
  1 1052 1.71999807E-08
  1 1053 1.60414908E-08
  1 1054 1.63334854E-08
  1 1055 1.68243807E-08
  1 1056 1.69650077E-08
  1 1057 1.67937322E-08
  1 1058 1.61418717E-08
  1 1059 1.57548392E-08
  1 1060 1.49513150E-08
  1 1061 1.40855608E-08
  1 1062 1.35917401E-08
  1 1063 1.35124099E-08
  1 1064 1.35124099E-08
  1 1065 1.35124099E-08
  1 1066 1.35124099E-08
  1 1067 1.40621373E-08
  1 1068 1.55006698E-08
  1 1069 1.78590538E-08
  1 1070 1.99732781E-08
  1 1071 2.06433716E-08
  1 1072 1.93764542E-08
  1 1073 1.79207121E-08
  1 1074 1.72100084E-08
  1 1075 1.59517174E-08
  1 1076 1.55002270E-08
  1 1077 1.56113087E-08
  1 1078 1.57485262E-08
  1 1079 1.60043881E-08
  1 1080 1.66150089E-08
  1 1081 1.71943251E-08
  1 1082 1.79396952E-08
  1 1083 1.93205376E-08
  1 1084 1.95970406E-08
  1 1085 1.93093053E-08
  1 1086 2.14070815E-08
  1 1087 2.34494049E-08
  1 1088 2.29910564E-08
  1 1089 2.21893743E-08
  1 1090 2.13128501E-08
  1 1091 2.00458460E-08
  1 1092 1.85945846E-08
  1 1093 1.70954484E-08
  1 1094 1.49698013E-08
  1 1095 1.23485825E-08
  1 1096 1.03881037E-08
  1 1097 9.75499832E-09
  1 1098 9.25874939E-09
  1 1099 8.77585756E-09
  1 1100 8.54158589E-09
  1 1101 8.69646660E-09
  1 1102 9.11403042E-09
  1 1103 1.02647941E-08
  1 1104 1.20907059E-08
  1 1105 1.45079538E-08
  1 1106 1.74070412E-08
  1 1107 2.26463743E-08
  1 1108 2.42375646E-08
  1 1109 2.58120668E-08
  1 1110 2.55025681E-08
  1 1111 2.36815414E-08
  1 1112 2.21997100E-08
  1 1113 2.08617237E-08
  1 1114 1.85941998E-08
  1 1115 1.60737918E-08
  1 1116 1.41268849E-08
  1 1117 1.35753754E-08
  1 1118 1.26750847E-08
  1 1119 1.21934996E-08
  1 1120 1.21689142E-08
  1 1121 1.27352570E-08
  1 1122 1.28629471E-08
  1 1123 1.18893398E-08
  1 1124 1.09162539E-08
  1 1125 1.02655819E-08
  1 1126 1.02655819E-08
  1 1127 1.02655819E-08
  1 1128 1.02655819E-08
  1 1129 1.01777933E-08
  1 1130 1.01777933E-08
  1 1131 1.01777933E-08
  1 1132 1.01777933E-08
  1 1133 1.01777933E-08
  1 1134 1.01777933E-08
  1 1135 1.01777933E-08
  1 1136 1.01777933E-08
  1 1137 1.01777933E-08
  1 1138 1.01777933E-08
  1 1139 1.01777933E-08
  1 1140 1.01777933E-08
  1 1141 1.01777933E-08
  1 1142 1.01777933E-08
  1 1143 1.01777933E-08
  1 1144 1.01777933E-08
  1 1145 1.01777933E-08
  1 1146 1.01777933E-08
  1 1147 1.01777933E-08
  1 1148 1.01777933E-08
  1 1149 1.01777933E-08
  1 1150 1.01777933E-08
  1 1151 1.01777933E-08
  1 1152 1.01777933E-08
  1 1153 1.01777933E-08
  1 1154 1.01777933E-08
  1 1155 1.01777933E-08
  1 1156 1.01777933E-08
  1 1157 1.01777933E-08
  1 1158 1.01777933E-08
  1 1159 1.01777933E-08
  1 1160 1.01777933E-08
  1 1161 1.01777933E-08
  1 1162 1.01777933E-08
  1 1163 1.01777933E-08
  1 1164 1.01777933E-08
  1 1165 1.01777933E-08
  1 1166 1.01777933E-08
  1 1167 1.01777933E-08
  1 1168 1.01777933E-08
  1 1169 1.05051232E-08
  1 1170 1.05051232E-08
  1 1171 1.05051232E-08
  1 1172 1.05051232E-08
  1 1173 1.18465594E-08
  1 1174 1.33579153E-08
  1 1175 1.43960593E-08
  1 1176 1.56470182E-08
  1 1177 1.57017400E-08
  1 1178 1.55470839E-08
  1 1179 1.59020817E-08
  1 1180 1.62554235E-08
  1 1181 1.63809267E-08
  1 1182 1.70338393E-08
  1 1183 1.79490054E-08
  1 1184 1.83675453E-08
  1 1185 2.00680439E-08
  1 1186 2.21690207E-08
  1 1187 2.34130709E-08
  1 1188 2.43639588E-08
  1 1189 2.39467824E-08
  1 1190 2.44796354E-08
  1 1191 2.56297818E-08
  1 1192 2.55279474E-08
  1 1193 2.57938363E-08
  1 1194 2.70475070E-08
  1 1195 2.61653647E-08
  1 1196 2.39032961E-08
  1 1197 2.21779205E-08
  1 1198 2.04321584E-08
  1 1199 1.90568996E-08
  1 1200 1.79110926E-08
  1 1201 1.65243649E-08
  1 1202 1.62011591E-08
  1 1203 1.67903296E-08
  1 1204 1.69794786E-08
  1 1205 1.67061271E-08
  1 1206 1.57518410E-08
  1 1207 1.56237033E-08
  1 1208 1.51640015E-08
  1 1209 1.42319427E-08
  1 1210 1.37889369E-08
  1 1211 1.37889369E-08
  1 1212 1.37889369E-08
  1 1213 1.37889369E-08
  1 1214 1.34745696E-08
  1 1215 1.34745696E-08
  1 1216 1.34745696E-08
  1 1217 1.34745696E-08
  1 1218 1.34745696E-08
  1 1219 1.34745696E-08
  1 1220 1.34745696E-08
  1 1221 1.34745696E-08
  1 1222 1.34745696E-08
  1 1223 1.34745696E-08
  1 1224 1.34745696E-08
  1 1225 1.34745696E-08
  1 1226 1.34745696E-08
  1 1227 1.34745696E-08
  1 1228 1.34745696E-08
  1 1229 1.34745696E-08
  1 1230 1.34745696E-08
  1 1231 1.34745696E-08
  1 1232 1.34745696E-08
  1 1233 1.34745696E-08
  1 1234 1.34745696E-08
  1 1235 1.34745696E-08
  1 1236 1.34745696E-08
  1 1237 1.34745696E-08
  1 1238 1.34745696E-08
  1 1239 1.34745696E-08
  1 1240 1.34745696E-08
  1 1241 1.34745696E-08
  1 1242 1.34745696E-08
  1 1243 1.34745696E-08
  1 1244 1.34745696E-08
  1 1245 1.34745696E-08
  1 1246 1.34745696E-08
  1 1247 1.34745696E-08
  1 1248 1.34745696E-08
  1 1249 1.34745696E-08
  1 1250 1.34745696E-08
  1 1251 1.34745696E-08
  1 1252 1.34745696E-08
  1 1253 1.34745696E-08
  1 1254 1.35474926E-08
  1 1255 1.35474926E-08
  1 1256 1.35474926E-08
  1 1257 1.35474926E-08
  1 1258 1.47741386E-08
  1 1259 1.75808286E-08
  1 1260 2.06140557E-08
  1 1261 2.11395641E-08
  1 1262 2.08858985E-08
  1 1263 1.92131556E-08
  1 1264 1.78737896E-08
  1 1265 1.70285789E-08
  1 1266 1.60375682E-08
  1 1267 1.57582742E-08
  1 1268 1.59994780E-08
  1 1269 1.61750200E-08
  1 1270 1.65859336E-08
  1 1271 1.75256839E-08
  1 1272 1.80556827E-08
  1 1273 1.92457160E-08
  1 1274 2.01889807E-08
  1 1275 1.98811170E-08
  1 1276 2.14426173E-08
  1 1277 2.35738729E-08
  1 1278 2.34789767E-08
  1 1279 2.25451527E-08
  1 1280 2.19805408E-08
  1 1281 2.08434930E-08
  1 1282 1.96384672E-08
  1 1283 1.86866184E-08
  1 1284 1.65949624E-08
  1 1285 1.39863447E-08
  1 1286 1.14038652E-08
  1 1287 1.02160804E-08
  1 1288 9.90335335E-09
  1 1289 9.49988645E-09