# File generated by Flopy version 3.6.0 on 10/28/2024 at 14:45:07.
BEGIN options
  PRINT_OPTION  summary
  COMPLEXITY  complex
END options

BEGIN linear
  LINEAR_ACCELERATION  bicgstab
END linear

