# File generated by Flopy version 3.6.0 on 04/09/2024 at 15:13:13.
BEGIN options
END options

BEGIN griddata
  icelltype
    CONSTANT  0
  k
    INTERNAL  FACTOR  1.0
    1.40677675E-04  3.72410475E-04  6.40806348E-04  4.34364595E-04  6.90729308E-04       0.00115625  9.24252702E-04  9.12752910E-04  8.84390081E-04  6.57903535E-04  8.11367207E-04  2.04949900E-04  8.32573702E-05  1.02080259E-04  1.14355710E-04  1.53338204E-04  2.83077517E-04  3.59454777E-04  2.89912991E-04  3.86760230E-04
    3.06793426E-04  2.75482886E-04  5.60018065E-04  6.78299366E-04  5.52103282E-04  5.32961121E-04  3.32451644E-04  3.69742695E-04  7.95916008E-04  6.98852576E-04  4.15205369E-04  2.12009559E-04  1.57885625E-04  1.53016768E-04  1.33257237E-04  2.90287074E-04  4.45704624E-04  8.34544765E-04       0.00108831  3.37235302E-04
    2.57035109E-04  2.53784210E-04  1.56595519E-04  1.45234041E-04  2.30779109E-04  2.79943350E-04  2.06718860E-04  1.44314948E-04  3.45246744E-04  3.66213355E-04  4.73490769E-04  5.24067972E-04  2.08056841E-04  3.79948585E-05  1.41032699E-05  2.13671148E-05  4.21555289E-05  6.52319090E-05  4.72633922E-05  1.41657073E-04
    1.11030903E-04  1.62032291E-04       0.00190414       0.01194657       0.00803516       0.00188219  4.93037538E-04  2.30769567E-04  2.82217836E-04  6.79478566E-05  2.87038500E-05  3.67745377E-05  2.72828746E-04  3.27008012E-04  9.45376522E-05  1.24566939E-04  1.20408139E-04  1.52759026E-04  2.32016004E-05  1.54391587E-05
    3.99696041E-05  1.39777093E-04  1.62631647E-04  2.56036154E-04  2.51286793E-04  5.39985922E-04       0.00182444       0.00492549       0.00453485       0.00593228       0.00331123  8.40820999E-04  5.28326178E-04  6.26126029E-04       0.00135565       0.00257493  9.62158052E-04  2.36695672E-04  1.08922612E-04  8.46014027E-05
    1.19833280E-04  3.55065601E-04  7.46569017E-04  5.59150574E-04  4.92280417E-04       0.00141954       0.00133355       0.00103616       0.00119837  5.89726262E-04  7.73322883E-04  4.15726353E-04  7.22605116E-05  5.30385337E-05  5.00444079E-05  6.11766813E-05  2.60037028E-04  3.63354207E-04  3.74793749E-04  3.90398354E-04
    2.96875224E-04  1.79018401E-04  2.79931108E-04  5.77721143E-04  5.80831548E-04  4.26335043E-04  6.41982414E-04  3.46271243E-04  8.90799857E-04       0.00116053  2.93125789E-04  2.32022972E-04  1.80795593E-04  2.77225569E-04  2.19680672E-04  3.81813709E-04  5.05991344E-04  6.14000505E-04       0.00125970  7.95154380E-04
    2.89231725E-04  2.47299159E-04  2.79831380E-04  2.12230833E-04  3.20126046E-04  3.57903380E-04  3.30504216E-04  1.48849589E-04  1.88947454E-04  2.30514266E-04  4.18716952E-04  4.51589792E-04  3.65656269E-04  7.89748019E-05  3.26400793E-05  3.63615772E-05  6.58803258E-05  6.84414427E-05  3.91353984E-05  1.06272909E-04
    1.88526811E-04  1.67408759E-04  7.57631339E-04       0.00733897       0.01057293       0.00318748  8.95852903E-04  4.12718483E-04  3.77959974E-04  1.23942397E-04  4.07949952E-05  4.10650036E-05  1.86840419E-04  2.94453131E-04  1.64190780E-04  1.28148610E-04  1.25453892E-04  1.26153385E-04  5.62419079E-05  1.41962471E-05
    2.46507022E-05  8.51633660E-05  1.41850083E-04  3.80500429E-04  3.14811217E-04  4.03548941E-04       0.00119871       0.00324599       0.00521270       0.00411517       0.00410249       0.00127099  6.21603117E-04  5.11825672E-04  9.46907588E-04       0.00182162       0.00131791  2.66047918E-04  1.72210148E-04  1.16408509E-04
    1.25713213E-04  2.08655210E-04       0.00129014  5.25061620E-04  5.61442688E-04       0.00121073       0.00175705       0.00148543       0.00138643  6.29155355E-04  3.68768473E-04  3.93110940E-04  8.03624871E-05  4.08638919E-05  2.70443164E-05  2.81985994E-05  1.19770243E-04  3.84743690E-04  6.14184772E-04  5.22187675E-04
    2.66293550E-04  1.34343009E-04  1.20227778E-04  3.47370876E-04  4.87873879E-04  4.00862974E-04  4.86946967E-04  3.69113869E-04  6.55813054E-04       0.00134730  5.14699591E-04  1.84765046E-04  2.66675410E-04  3.24289657E-04  2.68401198E-04  4.73214379E-04  6.22230280E-04  5.10692413E-04       0.00110199       0.00149827
    5.24939876E-04  3.20101524E-04  3.45775697E-04  4.06514482E-04  4.11894301E-04  4.75127776E-04  3.80710923E-04  2.14929076E-04  1.21143834E-04  1.84446438E-04  2.64712490E-04  3.31535990E-04  3.46254664E-04  1.31668718E-04  4.49142997E-05  6.59486684E-05  9.60496126E-05  1.30713962E-04  4.15634145E-05  6.13996399E-05
    1.99717383E-04  2.02037780E-04  4.34460298E-04       0.00186680       0.00698460       0.00382210       0.00170585  4.82919300E-04  3.49008585E-04  2.74982875E-04  6.72642243E-05  5.91537235E-05  1.34895624E-04  2.75368704E-04  2.60955143E-04  1.31265096E-04  1.36326723E-04  1.30689253E-04  8.34002728E-05  2.01435330E-05
    2.79643438E-05  5.16202569E-05  1.11360216E-04  4.58595148E-04  5.15143157E-04  5.64600576E-04  7.06616743E-04       0.00153037       0.00348755       0.00332532       0.00358798       0.00178930  7.53570509E-04  3.64350459E-04  7.75582287E-04       0.00167322       0.00146257  4.25444482E-04  3.11352443E-04  1.32850345E-04
    1.36093429E-04  1.77755737E-04       0.00103742  9.38141033E-04  5.58967286E-04  9.19894826E-04       0.00158560       0.00260388       0.00153619  7.73264890E-04  2.50237253E-04  3.17024436E-04  1.01704219E-04  3.20896812E-05  2.44618267E-05  1.96041477E-05  3.91346748E-05  2.99286204E-04  6.56452179E-04  8.47970709E-04
    3.66159046E-04  9.97116973E-05  6.18191152E-05  1.53486553E-04  4.04945352E-04  3.15579719E-04  3.04292551E-04  3.94099137E-04  3.34576508E-04  8.78303471E-04  9.62416264E-04  2.11699100E-04  2.06281535E-04  2.78564966E-04  3.71871803E-04  3.99024663E-04  9.69008631E-04  5.10336142E-04  8.40056934E-04       0.00172335
         0.00123471  5.18877568E-04  4.12886804E-04  6.77916795E-04  6.01020974E-04  3.61231765E-04  4.49810521E-04  2.82096925E-04  9.24897279E-05  1.13594115E-04  2.27712033E-04  2.81505789E-04  3.09416604E-04  1.26799872E-04  6.79396089E-05  6.54842122E-05  1.28946988E-04  1.97598935E-04  7.97172551E-05  4.54088894E-05
    1.53921788E-04  2.31028812E-04  3.16918116E-04  8.30584079E-04       0.00241400       0.00270334       0.00215996  6.34932984E-04  3.16114809E-04  3.69366241E-04  1.17650689E-04  6.68666849E-05  1.55165715E-04  2.70879033E-04  2.80053836E-04  1.67140685E-04  1.65322089E-04  1.52841852E-04  1.00027469E-04  5.16547730E-05
    3.10139388E-05  5.10504175E-05  1.10490165E-04  2.71379642E-04  6.47103358E-04  7.61903269E-04  6.42512780E-04  7.40756432E-04       0.00161042       0.00271070       0.00263347       0.00192311  9.70373423E-04  3.30537414E-04  5.15325578E-04       0.00145149       0.00229033  5.62596633E-04  3.39779509E-04  3.14017118E-04
    1.47133656E-04  2.15599390E-04  6.55837561E-04       0.00171634  5.50073099E-04       0.00109442       0.00118482       0.00272920       0.00180053       0.00131316  3.11077400E-04  2.58630482E-04  1.39031964E-04  2.72095518E-05  2.58825731E-05  2.53939382E-05  2.41464553E-05  1.11481002E-04  4.67496949E-04  8.83514440E-04
    6.86147993E-04  7.51612020E-05  3.66512526E-05  7.85063381E-05  2.26713136E-04  2.87402321E-04  1.88649551E-04  2.12585858E-04  2.37347375E-04  3.90511597E-04  9.39325909E-04  3.24099247E-04  1.39117434E-04  1.97583636E-04  5.00773547E-04  3.20313881E-04  5.95484056E-04  6.06101652E-04  6.39521426E-04       0.00124521
         0.00160540  8.24950601E-04  3.95602434E-04  6.74151094E-04  8.29730139E-04  4.31898906E-04  4.03902529E-04  3.10949652E-04  1.01651765E-04  9.78043719E-05  1.83650155E-04  3.10624905E-04  3.13810989E-04  1.12710029E-04  8.57798216E-05  4.36723014E-05  1.31848937E-04  2.60555724E-04  1.35020167E-04  4.37203068E-05
    8.91498871E-05  2.27579604E-04  3.64287668E-04  4.03791771E-04       0.00140604       0.00244250       0.00213775  9.57654784E-04  2.90673333E-04  3.17829168E-04  2.65413057E-04  1.06562803E-04  1.48396770E-04  3.13758744E-04  2.77280073E-04  2.97471132E-04  2.13719049E-04  1.80729806E-04  1.65858052E-04  9.56223912E-05
    4.43406027E-05  7.07812880E-05  8.58436332E-05  1.90571016E-04  5.55204397E-04  5.76742994E-04  9.52167074E-04  4.77941828E-04  6.05099695E-04       0.00188815       0.00197070       0.00180093  9.87137077E-04  4.35356994E-04  3.45353632E-04       0.00110418       0.00276085  9.36757887E-04  3.61694775E-04  8.10517963E-04
    1.86991040E-04  3.38609049E-04  5.84286360E-04       0.00221014  6.94983876E-04       0.00120040       0.00151316       0.00230697       0.00194576       0.00207279  6.33233788E-04  2.61817598E-04  2.29926887E-04  4.53606660E-05  1.77017604E-05  4.42957703E-05  3.15109509E-05  5.33139374E-05  3.20395053E-04  7.24369384E-04
    7.35684676E-04  1.32379929E-04  2.13648211E-05  3.86468014E-05  1.11271989E-04  1.89691872E-04  1.94798951E-04  1.13120513E-04  1.25559063E-04  2.29482844E-04  5.43182879E-04  4.78282732E-04  1.20164145E-04  1.03255311E-04  3.70989777E-04  2.70736997E-04  3.02731839E-04  4.88476798E-04  4.70541340E-04  7.20301189E-04
         0.00145426       0.00115916  4.36431640E-04  5.01562422E-04  7.64907169E-04  4.84266323E-04  3.47267096E-04  3.30552918E-04  1.18728394E-04  1.08448662E-04  1.62228134E-04  3.00314279E-04  3.68364819E-04  2.19848112E-04  6.88503138E-05  5.13015833E-05  8.37566072E-05  2.92921320E-04  1.83037187E-04  4.41452391E-05
    5.92342900E-05  1.53209940E-04  5.15745823E-04  3.89215579E-04  6.92180421E-04       0.00244322       0.00226456       0.00109902  2.89839395E-04  2.33087384E-04  4.54690807E-04  1.99807102E-04  1.13797278E-04  3.34468705E-04  3.08617264E-04  3.91367622E-04  2.97645565E-04  2.58476884E-04  2.14306727E-04  1.15035431E-04
    6.14550729E-05  7.84265958E-05  1.22079031E-04  1.76568381E-04  3.84936284E-04  6.12307962E-04  9.46144318E-04  5.68898762E-04  2.59952235E-04       0.00103675       0.00173762       0.00172159  6.40557838E-04  4.82261217E-04  4.16815545E-04  6.91767301E-04       0.00220930       0.00193406  4.94838753E-04  8.41311613E-04
    2.98504976E-04  5.53991693E-04  8.05736192E-04       0.00187198       0.00173724       0.00142663       0.00293971       0.00188475       0.00223099       0.00171701       0.00154347  4.12884429E-04  3.93414811E-04  1.24049922E-04  1.95503436E-05  3.67192382E-05  6.87532583E-05  4.61684959E-05  2.07992904E-04  5.63891684E-04
    6.61327966E-04  2.42264973E-04  1.88152730E-05  1.72122867E-05  5.14962339E-05  8.82917102E-05  1.20233321E-04  9.84171628E-05  8.04794966E-05  1.54208802E-04  3.20812095E-04  5.53586977E-04  2.72153711E-04  5.49416398E-05  1.63398755E-04  2.31017644E-04  2.08564034E-04  2.72442778E-04  3.35624008E-04  2.69547024E-04
    8.05313798E-04       0.00137914  6.76960020E-04  3.03162490E-04  5.83116536E-04  4.23747947E-04  2.76238455E-04  2.79980974E-04  1.26242988E-04  1.36036148E-04  2.33782541E-04  2.80780139E-04  3.97238418E-04  3.41290365E-04  7.88089802E-05  6.53088937E-05  8.56382576E-05  1.79948849E-04  2.64263585E-04  5.99577589E-05
    3.20674888E-05  8.54962066E-05  4.70185952E-04  4.22463619E-04  3.70994042E-04       0.00170819       0.00299817       0.00114273  3.41760931E-04  2.08040672E-04  3.21239932E-04  3.86817800E-04  1.55923286E-04  2.59733020E-04  2.83781210E-04  3.38644497E-04  4.69116127E-04  3.67935396E-04  2.52110261E-04  1.00476343E-04
    7.55851783E-05  1.05962784E-04  2.12303569E-04  1.60028368E-04  2.47887480E-04  6.66120419E-04  7.63874805E-04  9.45907107E-04  2.29644751E-04  4.32147603E-04  8.83805067E-04       0.00172172  6.27938920E-04  3.69655419E-04  3.97820668E-04  5.36530850E-04       0.00109525       0.00292443  9.55236388E-04  7.46082004E-04
    6.46911278E-04  7.63546465E-04       0.00131800       0.00212817       0.00327762       0.00200079       0.00486997       0.00406742       0.00234900       0.00161800       0.00171441  9.68623257E-04  7.55103355E-04  2.78638014E-04  4.94718711E-05  3.34293660E-05  8.89734309E-05  5.01153737E-05  1.13387626E-04  4.63626434E-04
    5.64483715E-04  2.84448237E-04  3.18518658E-05  1.00763781E-05  1.91553964E-05  4.76035191E-05  6.46358469E-05  9.49440473E-05  8.06072294E-05  8.12023994E-05  2.68629969E-04  5.62331593E-04  4.49279161E-04  8.90597837E-05  7.22160216E-05  1.47677701E-04  1.28117117E-04  1.85583754E-04  2.03929688E-04  1.61604956E-04
    3.17006308E-04       0.00110204  9.80786538E-04  3.40706470E-04  4.12650417E-04  5.49705903E-04  2.66564712E-04  1.50820331E-04  1.43487729E-04  1.43106059E-04  2.32674687E-04  2.75523420E-04  3.45718437E-04  2.22483441E-04  1.49991252E-04  6.14152597E-05  7.07761403E-05  1.53287085E-04  2.74243098E-04  8.07879417E-05
    2.68682679E-05  4.63557649E-05  2.21895705E-04  5.08117185E-04  3.16561257E-04  9.24222238E-04       0.00316014       0.00158301  4.08148890E-04  2.22023095E-04  2.27662784E-04  4.26290297E-04  2.52726894E-04  2.12136349E-04  2.92718522E-04  2.44977117E-04  5.16141358E-04  7.44882797E-04  3.88179176E-04  1.21261170E-04
    8.50377463E-05  9.38924199E-05  2.40409742E-04  2.75375419E-04  2.44812354E-04  5.68528737E-04  9.12111967E-04  9.46754188E-04  3.45453879E-04  2.20019046E-04  5.12027788E-04  8.74808255E-04       0.00100237  2.63338747E-04  2.70769918E-04  6.55933649E-04  6.77029136E-04       0.00292556       0.00174973  7.45578154E-04
    9.62424357E-04  9.42619728E-04       0.00186014       0.00347566       0.00388153       0.00326499       0.00722854       0.00585822       0.00368041       0.00206764       0.00171771       0.00196260       0.00146841  6.52199785E-04  2.08456613E-04  4.24069975E-05  8.17975279E-05  5.84747535E-05  5.18140856E-05  2.98947934E-04
    4.81898224E-04  2.96209438E-04  5.75264107E-05  9.88715417E-06  7.65780551E-06  2.54892382E-05  5.48497754E-05  8.42232179E-05  6.95640365E-05  7.32400967E-05  1.32281949E-04  4.00224415E-04  4.40620716E-04  1.92843912E-04  6.12148420E-05  9.59134988E-05  8.92442177E-05  1.23918974E-04  1.41027722E-04  1.19018205E-04
    1.37394799E-04  7.24030650E-04       0.00149820  4.40501285E-04  2.65102695E-04  6.77418196E-04  3.91562612E-04  1.24012869E-04  1.11129620E-04  1.08262359E-04  2.04017253E-04  2.03503547E-04  2.09622090E-04  2.11112120E-04  2.01578521E-04  5.95911428E-05  5.88725156E-05  1.21996856E-04  1.66847190E-04  1.12922510E-04
    2.44179541E-05  2.96225235E-05  9.38954091E-05  4.64364146E-04  2.83820497E-04  4.93973923E-04       0.00236026       0.00231313  5.56267303E-04  2.50781565E-04  1.82916734E-04  3.13052603E-04  3.97902254E-04  1.86087887E-04  2.38723396E-04  2.05765800E-04  4.63913777E-04       0.00117863  6.47468535E-04  1.87643307E-04
    1.23007325E-04  1.13305117E-04  2.35615612E-04  4.60568412E-04  2.79595152E-04  6.49274400E-04       0.00124180  9.87670097E-04  6.12488816E-04  1.69027542E-04  2.85374676E-04  4.35299062E-04       0.00112492  2.78842106E-04  2.32661822E-04  4.23893392E-04  7.12818555E-04       0.00184639       0.00162271  8.84228456E-04
         0.00135661       0.00128423       0.00160850       0.00344590       0.00445254       0.00380914       0.00638304       0.01036184       0.00545677       0.00372467       0.00161363       0.00248256       0.00274808       0.00162635  6.75402503E-04  1.17853034E-04  8.74564896E-05  8.20153834E-05  3.64475166E-05  1.62577829E-04
    4.25520771E-04  2.57185626E-04  1.01368622E-04  1.57948410E-05  7.69091122E-06  1.14627581E-05  2.73875168E-05  1.06045568E-04  6.82185287E-05  5.58824118E-05  7.85198839E-05  1.83153697E-04  3.28648607E-04  1.65711588E-04  1.13176455E-04  6.86143686E-05  4.72483033E-05  9.20507810E-05  9.53301185E-05  1.01414702E-04
    8.34325153E-05  4.18228898E-04       0.00156247  9.57038791E-04  2.26467353E-04  5.96207580E-04  5.25757100E-04  1.84243599E-04  6.15970297E-05  8.57681103E-05  1.47254975E-04  1.16693049E-04  1.59188460E-04  1.77672888E-04  1.34584694E-04  6.32182750E-05  6.38988582E-05  1.02004187E-04  1.16643335E-04  1.02487818E-04
    2.82810042E-05  1.93303379E-05  6.37008487E-05  2.11879418E-04  3.54321283E-04  3.82501335E-04       0.00128795       0.00269356  9.85733177E-04  3.46361784E-04  2.36217697E-04  2.29929689E-04  3.54849983E-04  2.42187258E-04  1.79301756E-04  2.48860639E-04  3.87795973E-04       0.00108760       0.00106725  2.76598829E-04
    1.57882294E-04  2.17948973E-04  2.49268858E-04  4.31949665E-04  4.44079872E-04  7.90134531E-04       0.00165505       0.00162259  7.47433423E-04  2.90020680E-04  1.55125649E-04  2.87904667E-04  6.54165892E-04  4.66272995E-04  2.67865094E-04  3.14725422E-04  6.90972850E-04       0.00112418  8.76211917E-04  9.14627607E-04
         0.00220979       0.00143437       0.00183137       0.00306054       0.00420626       0.00418766       0.00473221       0.01203670       0.00992323       0.00537483       0.00163238       0.00201537       0.00552769       0.00427197       0.00136333  5.52925218E-04  1.63603627E-04  1.39825451E-04  5.59849563E-05  8.71859241E-05
    8.71859241E-05  8.71859241E-05  8.71859241E-05  3.26644754E-04  2.87561022E-04  1.60999025E-04  2.93809645E-05  9.63897608E-06  6.23212633E-06  2.08407635E-05  6.99021607E-05  8.71475839E-05  4.23414777E-05  7.72430513E-05  9.17638817E-05  1.35770591E-04  1.31279550E-04  1.17338002E-04  7.81348275E-05  2.92960547E-05
    5.43644529E-05  7.37808571E-05  9.00323282E-05  8.34390874E-05  2.15828498E-04       0.00107466       0.00190617  3.77774802E-04  3.56120051E-04  5.02802646E-04  2.46859622E-04  4.55271695E-05  7.01538254E-05  7.53846732E-05  1.12457698E-04  9.68613977E-05  1.73961766E-04  9.64675113E-05  9.37138868E-05  5.15906225E-05
    9.81243686E-05  1.14833148E-04  9.76113720E-05  9.76113720E-05  9.76113720E-05  9.76113720E-05  4.24417504E-05  1.69369268E-05  4.90086036E-05  9.69602422E-05  3.37052750E-04  4.09322442E-04  9.26561391E-04       0.00236277       0.00168177  6.36498089E-04  3.62942949E-04  1.92978272E-04  2.96632584E-04  2.72664627E-04
    2.01326459E-04  3.03558869E-04  5.71302547E-04  6.98639164E-04       0.00101104  3.28502827E-04  1.73602062E-04  2.40811677E-04  4.72372095E-04  4.91272004E-04  7.69881836E-04  6.94534056E-04       0.00161075       0.00228118       0.00119425  4.94930927E-04  2.03957581E-04  1.75505521E-04  3.34469500E-04  6.23463340E-04
    3.67835468E-04  3.28709030E-04  5.17896139E-04  8.88141790E-04  6.48905520E-04  5.30644441E-04       0.00242938       0.00226367       0.00232232       0.00298696       0.00335205       0.00384662       0.00582132       0.00699628       0.01625444       0.00803915       0.00275409       0.00184980       0.00742800       0.00894431
         0.00292757       0.00153791  4.15699301E-04  2.82446901E-04  1.31548824E-04  1.31548824E-04  1.31548824E-04  1.31548824E-04  5.74046728E-05  5.74046728E-05  5.74046728E-05  5.74046728E-05  5.74046728E-05  5.74046728E-05  5.74046728E-05  5.74046728E-05  5.74046728E-05  5.74046728E-05  5.74046728E-05  5.74046728E-05
    5.74046728E-05  5.74046728E-05  5.74046728E-05  5.74046728E-05  5.74046728E-05  5.74046728E-05  5.74046728E-05  5.74046728E-05  5.74046728E-05  5.74046728E-05  5.74046728E-05  5.74046728E-05  5.74046728E-05  5.74046728E-05  5.74046728E-05  5.74046728E-05  5.74046728E-05  5.74046728E-05  5.74046728E-05  5.74046728E-05
    5.74046728E-05  5.74046728E-05  5.74046728E-05  5.74046728E-05  5.74046728E-05  5.74046728E-05  5.74046728E-05  5.74046728E-05  1.79440403E-04  1.79440403E-04  1.79440403E-04  1.79440403E-04  3.24490601E-04  1.03086486E-04  5.86288049E-05  1.31099672E-05  7.06408375E-06  1.39458186E-05  3.75823973E-05  8.85226481E-05
    3.70261224E-05  5.93712029E-05  8.32602947E-05  7.36775675E-05  7.98396227E-05  9.38151867E-05  7.41280156E-05  3.10728573E-05  1.95237961E-05  5.70873919E-05  5.93873385E-05  9.20880636E-05  1.99656863E-04  4.53000952E-04       0.00170611  8.38778213E-04  3.16733604E-04  4.30025628E-04  2.58088098E-04  7.69990704E-05
    4.82888533E-05  5.22146282E-05  1.27739510E-04  8.17239514E-05  1.83995700E-04  9.86817849E-05  1.02143819E-04  5.35183709E-05  1.24287861E-04  1.26229330E-04  1.26229330E-04  1.26229330E-04  1.26229330E-04  1.78130406E-04  1.78130406E-04  1.78130406E-04  1.78130406E-04  1.78130406E-04  1.78130406E-04  1.78130406E-04
    1.78130406E-04  1.78130406E-04  1.78130406E-04  1.78130406E-04  1.78130406E-04  1.78130406E-04  1.78130406E-04  1.78130406E-04  1.78130406E-04  1.78130406E-04  1.78130406E-04  1.78130406E-04  1.78130406E-04  1.78130406E-04  1.78130406E-04  1.78130406E-04  1.78130406E-04  1.78130406E-04  1.78130406E-04  1.78130406E-04
    1.78130406E-04  1.78130406E-04  1.78130406E-04  1.78130406E-04  1.78130406E-04  1.78130406E-04  1.78130406E-04  1.78130406E-04  1.78130406E-04  1.78130406E-04  1.78130406E-04  1.78130406E-04  1.78130406E-04  4.82213119E-05  4.82213119E-05  4.82213119E-05  4.82213119E-05  2.93704051E-05  3.94990998E-05  7.75715003E-05
    2.09909717E-04  4.30686025E-04  7.51221565E-04       0.00173999       0.00256209       0.00110245  4.59975132E-04  3.30759820E-04  2.87359973E-04  2.37777301E-04  3.12932994E-04  4.18125876E-04  8.02761290E-04  5.29125506E-04  7.20746056E-04  3.48041560E-04  1.65159845E-04  3.03646539E-04  7.17153845E-04  6.77042663E-04
    7.17669095E-04       0.00102230       0.00155054       0.00259596       0.00167374  5.35834258E-04  3.43794365E-04  1.69286812E-04  2.63141736E-04  5.34898076E-04  6.30614513E-04  4.05610163E-04  3.94955442E-04  6.01347195E-04  5.57700967E-04  2.87874661E-04       0.00273902       0.00223601       0.00338481       0.00373362
         0.00419617       0.00349954       0.00645895       0.00555177       0.01005278       0.01046754       0.00572406       0.00174727       0.00446608       0.01981983       0.00754295       0.00264013       0.00111022  5.80187833E-04  2.39002369E-04  8.36410586E-05  8.36410586E-05  8.36410586E-05  8.36410586E-05  8.42962663E-05
    2.02089991E-04  9.55445238E-05  5.75716557E-05  1.80153646E-05  1.09320143E-05  1.08225580E-05  2.21039860E-05  5.60592960E-05  4.21681940E-05  4.16570565E-05  9.12026124E-05  5.75773276E-05  6.67719130E-05  6.06005569E-05  5.70731529E-05  3.32171806E-05  1.48367845E-05  2.42966846E-05  4.45969949E-05  7.13605939E-05
    2.25561936E-04  3.13028522E-04  8.61792881E-04  9.88543168E-04  4.85955630E-04  2.89861979E-04  2.27158999E-04  1.23727288E-04  5.21777364E-05  4.16137011E-05  6.83581679E-05  1.32074844E-04  1.50345779E-04  1.08963112E-04  8.86640505E-05  9.19718603E-05  1.57565010E-04  1.34303499E-04  2.24277943E-04  2.24277943E-04
    2.24277943E-04  2.24277943E-04  6.92264402E-05  4.69336508E-05  5.47544362E-05  1.02350896E-04  1.16718847E-04  3.58490563E-04  7.37980421E-04       0.00132938       0.00276908       0.00178460  6.06160859E-04  5.01712037E-04  3.06020307E-04  2.52956995E-04  3.40727466E-04  6.60738455E-04  9.52415282E-04  5.56645509E-04
    4.24694473E-04  4.22160643E-04  1.31794213E-04  2.48410709E-04  7.71981288E-04       0.00112124  6.65416420E-04       0.00152000       0.00242694       0.00257386       0.00188597  6.93301916E-04  4.08482545E-04  2.40802541E-04  2.53950590E-04  6.62442973E-04  8.69985277E-04  5.43313974E-04  2.62550373E-04  3.12290802E-04
    3.69939970E-04  2.35033332E-04       0.00207087       0.00223723       0.00415547       0.00847941       0.00492431       0.00411828       0.00705340       0.00670170       0.00426260       0.00810235       0.00643047       0.00221325       0.00339378       0.01440731       0.01986703       0.00390659       0.00254362       0.00110165
    4.77847030E-04  1.78401077E-04  6.60308342E-05  1.32736698E-04  1.03294284E-04  4.45392063E-05  2.30500685E-05  1.34510851E-05  1.21186713E-05  1.61906532E-05  3.34765651E-05  3.35492280E-05  3.86874391E-05  7.43310872E-05  8.58883408E-05  4.88969619E-05  5.25494199E-05  4.22435566E-05  2.69473825E-05  2.02739905E-05
    1.49283706E-05  3.13343176E-05  5.28777229E-05  1.77095689E-04  4.00264066E-04  3.89338218E-04  8.96702024E-04  4.90055426E-04  2.60301423E-04  1.48284390E-04  1.34503707E-04  7.33175568E-05  4.87723538E-05  2.87785128E-05  1.09832173E-04  1.64387738E-04  1.15247961E-04  8.78088040E-05  9.58512592E-05  1.40956597E-04
    1.62111149E-04  2.41187084E-04  1.46877091E-04  5.83431161E-05  1.00215423E-04  1.25618605E-04  1.53711550E-04  2.35139064E-04  6.14506376E-04  9.64886592E-04       0.00262434       0.00303858  7.34425895E-04  5.08586894E-04  3.56420769E-04  2.44536960E-04  3.11388146E-04  8.15512248E-04       0.00121566  7.32500992E-04
    3.35820704E-04  4.20197217E-04  1.40105521E-04  1.95347060E-04  5.23245646E-04       0.00171234  7.86871799E-04       0.00106347       0.00463994       0.00323342       0.00241312  9.99383778E-04  4.00756378E-04  3.37246321E-04  3.34091853E-04  6.04891789E-04       0.00120411  6.05292608E-04  2.65273941E-04  1.50119019E-04
    1.67538516E-04  2.17278627E-04  6.93152260E-04       0.00314737       0.00371691       0.01172626       0.00810786       0.00536621       0.00834847       0.00649526       0.00285078       0.00417771       0.00523297       0.00256221       0.00253166       0.00685011       0.02323800       0.00595273       0.00417801       0.00214782
    9.38451023E-04  3.18433559E-04  1.25550635E-04  1.17953270E-04  7.04694740E-05  4.40490314E-05  3.41478231E-05  1.61338744E-05  1.11447026E-05  1.22843684E-05  2.37964335E-05  2.38438767E-05  3.14308717E-05  6.22512489E-05  9.37575157E-05  5.55432733E-05  5.05381609E-05  3.53669376E-05  2.25744707E-05  2.08486925E-05
    1.70928380E-05  2.07441594E-05  4.25769868E-05  1.36712683E-04  4.00564891E-04  3.62585233E-04  4.50596718E-04  4.04032271E-04  3.62216129E-04  1.29818737E-04  1.06134271E-04  7.77912580E-05  5.74204106E-05  3.06171857E-05  6.74066682E-05  1.40678206E-04  9.94037086E-05  8.36568835E-05  8.29083283E-05  1.33792140E-04
    2.08924989E-04  2.52783675E-04  3.22459049E-04  8.75260916E-05  1.27902087E-04  1.50577265E-04  2.92490712E-04  2.32501396E-04  3.88489661E-04       0.00106071       0.00184913       0.00371118  9.11575009E-04  6.28880994E-04  3.09805271E-04  2.03606487E-04  1.94948795E-04  6.94764197E-04       0.00123888       0.00107512
    3.29319001E-04  3.12145418E-04  1.35302717E-04  1.60619048E-04  3.03204048E-04       0.00159714       0.00112191  9.28216056E-04       0.00513866       0.00561630       0.00323814       0.00131045  4.74228181E-04  3.95239674E-04  4.12827904E-04  4.92133692E-04       0.00113334  7.76405488E-04  2.95361169E-04  1.04959279E-04
    7.72025335E-05  1.30517794E-04  3.04732554E-04       0.00290766       0.00255091       0.01138086       0.01163868       0.00537156       0.00805233       0.00580344       0.00267885       0.00147436       0.00412027       0.00285452       0.00180930       0.00558089       0.01229475       0.01394569       0.00455575       0.00437604
         0.00148479  6.38177120E-04  2.64167283E-04  1.73616454E-04  6.86684219E-05  3.69327241E-05  3.45627674E-05  2.17563668E-05  1.16306091E-05  1.02061451E-05  1.84842010E-05  2.27918998E-05  2.34015172E-05  4.84084450E-05  1.09945675E-04  7.32615319E-05  3.38701242E-05  3.16021767E-05  1.64378291E-05  1.97282037E-05
    2.58807660E-05  1.41558653E-05  4.48690547E-05  7.28149515E-05  3.98482436E-04  3.79209261E-04  2.64102937E-04  3.85894657E-04  3.38635076E-04  2.27437315E-04  8.76652931E-05  7.53859166E-05  5.85810438E-05  5.39438950E-05  5.10951894E-05  1.37063094E-04  1.17206788E-04  7.83644585E-05  7.94686414E-05  1.44559037E-04
    2.17173725E-04  3.21238263E-04  4.70076595E-04  2.45660032E-04  1.89761353E-04  1.73440535E-04  4.10282327E-04  4.63983740E-04  5.59548213E-04  9.09260449E-04       0.00142686       0.00339609       0.00161566  5.86445534E-04  3.36482336E-04  1.27383248E-04  1.02122071E-04  4.14262845E-04  8.86673154E-04       0.00148094
    3.30874904E-04  2.66161244E-04  1.37094859E-04  9.31212349E-05  3.04603743E-04  8.66795331E-04       0.00183247  8.90877626E-04       0.00353991       0.00888840       0.00382245       0.00205924  5.88750045E-04  4.33467541E-04  5.75045391E-04  5.27699887E-04       0.00102034  7.28019202E-04  2.94990567E-04  1.33609412E-04
    5.19965486E-05  5.53783839E-05  2.76682593E-04       0.00150487       0.00278300       0.00671056       0.01614452       0.00617141       0.00457100       0.00524407       0.00249669  6.64389374E-04       0.00248156       0.00271701       0.00161698       0.00428458       0.00582711       0.01571043       0.00708466       0.00492213
         0.00263838  8.58744986E-04  4.41221716E-04  3.10373165E-04  1.39968236E-04  3.64319656E-05  2.54152734E-05  2.18858030E-05  1.84998831E-05  1.04894405E-05  1.63360314E-05  2.59827996E-05  2.55034994E-05  4.61865698E-05  1.07363994E-04  8.20730258E-05  2.99043863E-05  2.22530475E-05  1.42945685E-05  2.25640275E-05
    2.53698098E-05  1.77397393E-05  2.84174595E-05  4.37281803E-05  2.18903819E-04  3.64212203E-04  2.70979517E-04  2.73113184E-04  4.94612667E-04  3.30324309E-04  9.30856821E-05  7.12406805E-05  5.69147930E-05  6.20169384E-05  6.26452198E-05  9.75177851E-05  1.43080296E-04  9.13476936E-05  1.02259900E-04  1.13007272E-04
    2.00055661E-04  4.66083767E-04  7.96799797E-04  5.58472963E-04  2.40859966E-04  2.47203656E-04  3.69047392E-04       0.00105053       0.00100149       0.00148513       0.00142864       0.00225577       0.00209140  5.22860060E-04  3.56480288E-04  1.27098266E-04  6.81652564E-05  1.74998744E-04  4.35714687E-04       0.00140914
    5.20946696E-04  2.56100664E-04  1.30192905E-04  7.93106527E-05  2.69013269E-04  7.07418124E-04       0.00191415       0.00103859       0.00210078       0.00802094       0.00592531       0.00387083  7.88069894E-04  4.35351117E-04  5.02015053E-04  6.76174544E-04  9.26915049E-04  8.29086777E-04  2.77391887E-04  1.40816019E-04
    7.84598993E-05  3.09489257E-05  2.99137152E-04       0.00106177       0.00262735       0.00394628       0.01405373       0.00903429       0.00239792       0.00402328       0.00195298  5.89517723E-04  8.86263864E-04       0.00138699  9.39177493E-04       0.00269453       0.00490952       0.00898696       0.01009612       0.00571795