# File generated by Flopy version 3.7.0 on 08/05/2024 at 09:37:50.
BEGIN options
  PRINT_OPTION  summary
  COMPLEXITY  complex
END options

BEGIN linear
  LINEAR_ACCELERATION  bicgstab
END linear

