# File generated by Flopy version 3.6.0 on 04/08/2024 at 13:06:54.
BEGIN options
END options

BEGIN griddata
  icelltype
    CONSTANT  0
  k
    INTERNAL  FACTOR  1.0
    6.18273573E-04  4.30757364E-04  4.81462060E-04  5.84794613E-04  4.29599086E-04  4.19074070E-04  2.12032454E-04  1.74974397E-04  2.27103929E-04  3.85782519E-04  7.17265403E-04  6.68366188E-04  5.88977578E-04  6.16609434E-04  3.04158632E-04  1.64345430E-04  1.72479569E-04  1.33486539E-04  1.34740649E-04  1.25558938E-04
    1.51832981E-04  1.93415468E-04  2.20385037E-04  2.60721388E-04  3.20314567E-04  3.78640431E-04  4.38403837E-04  2.78174833E-04  2.26064015E-04  2.41001564E-04  2.73702932E-04  2.71585603E-04  5.83053860E-04  7.39335454E-04  3.93949685E-04  2.90515470E-04  5.21076599E-04  7.24382761E-04  5.62207400E-04  3.02098907E-04
    2.15439304E-04  1.64771719E-04  2.45402812E-04  3.06197116E-04  1.71862189E-04  1.34165484E-04  1.41402382E-04  1.34855702E-04  1.00088058E-04  1.56304404E-04  2.44602789E-04  2.27094104E-04  1.62236449E-04  1.26614037E-04  1.19915064E-04  8.06837473E-05  1.11716479E-04  1.43004835E-04  1.66029243E-04  1.44031062E-04
    9.85087089E-05  9.36527298E-05  1.29459501E-04  1.93305582E-04  1.43588455E-04  1.14765742E-04  1.08743932E-04  8.15449739E-05  1.16203123E-04  2.30577572E-04  2.18637801E-04  2.11098440E-04  2.07526669E-04  1.35912526E-04  8.78078039E-05  1.14509870E-04  1.60457155E-04  1.14705868E-04  1.44716102E-04  1.87196506E-04
    2.03299075E-04  1.95261483E-04  2.14359310E-04  1.74442794E-04  1.43020578E-04  1.27329508E-04  9.99483609E-05  7.28714345E-05  9.69036769E-05  8.85114054E-05  9.00185665E-05  9.93010519E-05  1.38687447E-04  2.63703388E-04  3.49509195E-04  3.56555543E-04  3.84525658E-04  4.65003540E-04  6.01457445E-04  8.34032490E-04
    9.45381279E-04  6.59972027E-04  5.03497274E-04  5.05265248E-04  4.49689397E-04  5.59971438E-04  3.02210412E-04  1.52234422E-04  2.55154229E-04  3.87780959E-04  6.10705067E-04  6.90962206E-04  5.52776324E-04  5.83126081E-04  3.41150331E-04  1.79491442E-04  1.39204229E-04  1.54710209E-04  1.16093553E-04  1.09347901E-04
    1.36641582E-04  2.02743432E-04  1.98333389E-04  2.09758526E-04  2.29814588E-04  2.68262650E-04  4.08953250E-04  2.99667988E-04  2.00170603E-04  2.41147725E-04  2.54679303E-04  2.32960356E-04  4.84822758E-04  8.96411568E-04  5.11661624E-04  2.77672791E-04  3.67967612E-04  7.39744082E-04  8.06372047E-04  4.50760550E-04
    2.47764975E-04  1.42242898E-04  1.72464468E-04  2.98039555E-04  2.31697837E-04  1.44889243E-04  1.41200049E-04  1.41417744E-04  9.48237074E-05  1.00582203E-04  2.01371374E-04  2.11969909E-04  1.50821293E-04  1.36486316E-04  1.73049193E-04  1.09901041E-04  8.64527627E-05  1.12298335E-04  1.43184637E-04  1.95242925E-04
    1.24806184E-04  8.69900524E-05  1.30767726E-04  1.98371970E-04  1.44126126E-04  1.41429680E-04  1.10104056E-04  9.58410507E-05  1.03912351E-04  2.07259037E-04  2.85682770E-04  2.12739837E-04  2.23860989E-04  1.60870928E-04  9.82287716E-05  1.06841269E-04  1.48968188E-04  1.49190378E-04  1.48880681E-04  1.91180247E-04
    2.17143844E-04  2.12694023E-04  2.54318512E-04  2.26016288E-04  1.64565860E-04  1.23155486E-04  1.16225902E-04  8.05326673E-05  7.58804818E-05  1.02401653E-04  9.83450984E-05  1.11556151E-04  1.12721202E-04  2.22354914E-04  3.54233674E-04  4.33309824E-04  4.02676468E-04  5.47747949E-04  5.97548963E-04  8.07974154E-04
    9.49210439E-04  9.75322411E-04  6.04001240E-04  4.86680656E-04  5.11813458E-04  6.33749468E-04  4.68256468E-04  1.98575708E-04  2.19515278E-04  4.19754443E-04  5.80168391E-04  5.90539846E-04  5.52489405E-04  5.19203866E-04  3.83324518E-04  2.26533070E-04  1.30638149E-04  1.48182096E-04  1.39413851E-04  1.00464401E-04
    1.19543170E-04  1.99775856E-04  1.96230761E-04  1.94569184E-04  1.88012511E-04  2.02908898E-04  3.08464937E-04  3.24847209E-04  2.02331640E-04  2.12647549E-04  2.17478789E-04  2.19801845E-04  3.58692090E-04  8.80933003E-04  7.01515142E-04  2.78895217E-04  2.67736525E-04  6.62099745E-04  9.27675750E-04  6.75255119E-04
    3.11683346E-04  1.66216802E-04  1.16899227E-04  2.54890034E-04  2.77257477E-04  1.87588342E-04  1.59782237E-04  1.52578154E-04  1.09719205E-04  8.23972871E-05  1.43318879E-04  1.73174525E-04  1.37175077E-04  1.34381016E-04  1.76557173E-04  1.91972925E-04  7.78255823E-05  7.58324196E-05  1.37092679E-04  2.11820725E-04
    1.65104116E-04  1.05242008E-04  1.07088022E-04  1.86010085E-04  1.65214006E-04  1.50825462E-04  1.39655679E-04  1.07787631E-04  1.16274764E-04  1.63156489E-04  2.72316772E-04  2.72051380E-04  2.25056321E-04  1.93233639E-04  1.40514013E-04  9.70654974E-05  1.29455934E-04  1.65289309E-04  1.56047378E-04  1.98737463E-04
    2.52868354E-04  2.08968142E-04  2.71484310E-04  2.66563971E-04  2.10420605E-04  1.29185971E-04  1.20334967E-04  1.03386047E-04  6.62194902E-05  9.93577440E-05  1.05865543E-04  1.21060631E-04  1.16898612E-04  1.55124981E-04  3.36002685E-04  5.06671912E-04  4.31684110E-04  6.12885433E-04  7.30699848E-04  7.23210125E-04
    6.73800437E-04  9.96409139E-04  7.78093508E-04  5.35578806E-04  5.15521964E-04  6.11629037E-04  7.96985892E-04  2.99816289E-04  2.10290014E-04  4.00394753E-04  5.58623508E-04  5.12005802E-04  5.34805156E-04  5.49982078E-04  3.76864134E-04  2.43115500E-04  1.78641350E-04  1.45610248E-04  1.31600966E-04  1.27366156E-04
    1.08879662E-04  1.69905971E-04  1.99255716E-04  1.62628053E-04  1.41826829E-04  1.35552281E-04  2.09994140E-04  3.16177552E-04  2.30692150E-04  1.94990924E-04  2.14359958E-04  1.86499417E-04  3.03042749E-04  7.21220576E-04  9.18828540E-04  3.77897241E-04  2.18967069E-04  4.87272874E-04       0.00100630  9.25894526E-04
    4.21425087E-04  2.31218617E-04  1.05184317E-04  1.60692246E-04  2.73060385E-04  1.94861538E-04  1.85559496E-04  2.18825067E-04  1.22086233E-04  9.24340189E-05  9.45446630E-05  1.40290571E-04  8.90201994E-05  1.16301359E-04  1.76797301E-04  2.10807188E-04  9.65682081E-05  5.89389328E-05  1.06474207E-04  2.23262000E-04
    1.83473829E-04  1.39248281E-04  1.05614715E-04  1.75974713E-04  1.77764994E-04  1.58242617E-04  1.67538901E-04  1.25638617E-04  1.44345969E-04  1.62307217E-04  2.10080487E-04  3.34015445E-04  2.35498863E-04  2.00442963E-04  2.00635455E-04  1.20203011E-04  1.08046253E-04  1.42358922E-04  1.88490349E-04  2.02746977E-04
    2.53819111E-04  2.21305075E-04  2.44514128E-04  2.86745162E-04  2.54406970E-04  1.81833704E-04  1.01942782E-04  1.10757201E-04  6.50157080E-05  8.49570785E-05  1.21784615E-04  1.40457964E-04  1.33171575E-04  1.35488003E-04  2.55848919E-04  5.23673367E-04  5.13411010E-04  5.89406384E-04  8.12261301E-04  7.23753529E-04
    4.22614361E-04  8.48925730E-04  8.49633324E-04  4.88021388E-04  5.07610549E-04  6.18516877E-04  9.27349395E-04  4.91326051E-04  2.51653342E-04  3.47839605E-04  5.31552317E-04  5.61156665E-04  5.01948104E-04  6.05686282E-04  3.81293263E-04  2.72963373E-04  1.91645051E-04  1.64227489E-04  1.21703266E-04  1.42633747E-04
    1.25505926E-04  1.73805036E-04  2.01879123E-04  1.24718964E-04  1.05392421E-04  1.06937866E-04  1.54880086E-04  2.64332475E-04  2.69007253E-04  1.77940733E-04  1.93469935E-04  1.68767720E-04  2.73107710E-04  6.10605895E-04  8.87253007E-04  4.93789177E-04  1.92971184E-04  3.48187597E-04  8.68047963E-04       0.00113540
    6.29560388E-04  2.71977961E-04  1.27904921E-04  1.00275324E-04  2.08963948E-04  2.04495580E-04  1.92770474E-04  2.53771360E-04  1.55892868E-04  1.14525937E-04  8.40712417E-05  1.06116758E-04  7.13657651E-05  9.04619922E-05  1.66731585E-04  1.95347127E-04  1.14278177E-04  5.78087789E-05  7.64252042E-05  1.87350440E-04
    2.14021086E-04  1.77638258E-04  1.28718653E-04  1.42093858E-04  1.62043065E-04  1.62550151E-04  2.03492210E-04  1.34045455E-04  1.66456869E-04  1.97729684E-04  1.62269940E-04  2.91192708E-04  2.88119615E-04  2.17239689E-04  2.15955948E-04  1.58110465E-04  1.15665849E-04  1.19840850E-04  1.96704387E-04  2.28369818E-04
    2.17652442E-04  2.09365474E-04  2.34141594E-04  3.06266957E-04  2.70576542E-04  2.68993826E-04  1.16564608E-04  1.16428283E-04  7.13564905E-05  8.00040406E-05  1.08354606E-04  1.63430549E-04  1.66240537E-04  1.33890090E-04  1.80651861E-04  3.92783405E-04  5.42769548E-04  6.25346532E-04  7.89378841E-04  7.39323035E-04
    2.69536091E-04  5.24431354E-04  7.34234051E-04  5.16310909E-04  4.34159282E-04  5.00011623E-04  7.09336892E-04  7.01348867E-04  3.56454924E-04  3.00301543E-04  4.49659249E-04  6.67533486E-04  4.70876543E-04  5.30667389E-04  4.41903194E-04  2.84410238E-04  2.00720745E-04  1.85432204E-04  1.39210940E-04  1.37430989E-04
    1.54007805E-04  1.76745089E-04  2.07115668E-04  1.29982471E-04  9.21111298E-05  8.46147046E-05  1.14804987E-04  2.11665499E-04  2.79878321E-04  1.64428864E-04  1.64832766E-04  1.51877925E-04  2.51327016E-04  5.27262081E-04  8.28086143E-04  5.45656202E-04  2.13765179E-04  2.36891812E-04  6.14403164E-04       0.00102768
    7.53037332E-04  3.62458730E-04  1.68030252E-04  7.94244741E-05  1.31109656E-04  2.14894167E-04  1.85138507E-04  2.98679860E-04  2.12548899E-04  1.32921692E-04  9.97670867E-05  1.10628814E-04  7.44420998E-05  5.90721706E-05  1.44431006E-04  1.84715162E-04  1.37409845E-04  6.42680058E-05  6.49534030E-05  1.30454262E-04
    2.27540000E-04  2.15896748E-04  1.80619455E-04  1.41787134E-04  1.52525963E-04  1.45679967E-04  1.81354643E-04  1.66472820E-04  1.58534518E-04  2.24186897E-04  1.63967743E-04  1.99095204E-04  2.94860079E-04  2.54914281E-04  2.11382873E-04  1.98380915E-04  1.25771794E-04  1.39486468E-04  2.01962957E-04  2.41139487E-04
    2.31098247E-04  1.80516782E-04  2.01824708E-04  3.14296013E-04  3.14889653E-04  3.33879180E-04  2.01018448E-04  1.08513123E-04  9.41431283E-05  7.17581993E-05  9.81580228E-05  1.56051962E-04  1.69261933E-04  1.47891220E-04  1.52169570E-04  2.73337609E-04  4.72697358E-04  6.30484585E-04  8.86902663E-04  7.32039272E-04
    2.25983655E-04  3.06917406E-04  5.93747594E-04  5.34220519E-04  3.56203838E-04  4.39749434E-04  4.86844165E-04  6.09935203E-04  4.48926523E-04  2.72290515E-04  3.63473261E-04  6.73604576E-04  5.55513075E-04  4.83127343E-04  4.45193665E-04  2.97553935E-04  2.13571002E-04  1.75208162E-04  1.61814050E-04  1.40714576E-04
    1.78616224E-04  1.90140734E-04  2.11412380E-04  1.65841960E-04  1.05924912E-04  7.89626508E-05  8.48009340E-05  1.73207113E-04  2.46057316E-04  1.56398976E-04  1.36267435E-04  1.39140666E-04  2.11156320E-04  4.41537901E-04  7.99311120E-04  5.80420918E-04  2.53231150E-04  1.77565546E-04  4.35610939E-04  8.33621375E-04
    8.34213811E-04  4.18146103E-04  2.38041519E-04  8.48646567E-05  9.58812637E-05  1.53398516E-04  2.11295386E-04  2.70993526E-04  3.00061533E-04  1.78325190E-04  1.17742068E-04  1.30533397E-04  9.49976153E-05  5.36684627E-05  1.10362164E-04  1.61931876E-04  1.46923214E-04  8.54214495E-05  6.95953721E-05  1.03313736E-04
    1.70774009E-04  2.31707421E-04  2.51634216E-04  1.66222556E-04  1.49872966E-04  1.25373860E-04  1.53098779E-04  1.83846070E-04  1.47595792E-04  2.05264897E-04  2.02933178E-04  1.65802481E-04  2.24888246E-04  2.65568452E-04  2.32688842E-04  2.46638096E-04  1.52522338E-04  1.52880397E-04  2.13320347E-04  2.57685761E-04
    2.70896683E-04  1.79522756E-04  1.82824499E-04  2.88582696E-04  3.82297373E-04  4.10277435E-04  3.33582457E-04  1.51095209E-04  1.26027576E-04  7.51528581E-05  9.52813662E-05  1.29091559E-04  1.49029419E-04  1.64219201E-04  1.31275318E-04  1.83054159E-04  3.65629752E-04  5.15251245E-04  8.02779061E-04  7.47005417E-04
    1.87296444E-04  2.49900447E-04  4.44303017E-04  5.35496077E-04  3.57211151E-04  3.54944744E-04  3.85499347E-04  4.95438570E-04  3.78907463E-04  2.74166576E-04  2.84998093E-04  5.63587328E-04  5.55608137E-04  4.81335985E-04  4.29185291E-04  3.42664405E-04  2.19401249E-04  1.77356445E-04  1.83942519E-04  1.75348146E-04
    1.94036597E-04  2.47035134E-04  2.21532587E-04  1.82710911E-04  1.50366952E-04  8.84962711E-05  8.16922243E-05  1.21758825E-04  2.15745637E-04  1.41975273E-04  1.04645778E-04  1.16141570E-04  1.59876658E-04  3.59619901E-04  5.83558485E-04  5.95203919E-04  2.64180416E-04  1.83686893E-04  3.34138290E-04  6.61440584E-04
    8.02047374E-04  5.15702371E-04  2.55575673E-04  1.13976137E-04  8.83142476E-05  1.20155923E-04  1.94613954E-04  2.57316049E-04  3.61026184E-04  2.63484938E-04  1.52849311E-04  1.51382076E-04  1.46531855E-04  6.84282270E-05  7.68071098E-05  1.24638801E-04  1.49312918E-04  8.61693038E-05  8.05435233E-05  9.86379647E-05
    1.28966063E-04  2.31576911E-04  2.72589191E-04  2.24887143E-04  1.45264909E-04  1.43639778E-04  1.39999120E-04  1.61319519E-04  1.45181403E-04  1.71501003E-04  2.40909608E-04  1.81897800E-04  1.91056857E-04  2.30079959E-04  2.76185565E-04  2.71793007E-04  2.00874866E-04  1.52087630E-04  1.98457253E-04  2.75782194E-04
    2.74096499E-04  2.32395917E-04  1.75772115E-04  2.53943873E-04  3.96928463E-04  5.01171202E-04  4.95192839E-04  2.40314962E-04  1.68313198E-04  9.70407981E-05  9.25907791E-05  1.25548270E-04  1.31396042E-04  1.46355460E-04  1.27035987E-04  1.33552696E-04  2.22774372E-04  4.04710287E-04  5.96135069E-04  7.33792920E-04
    1.66252725E-04  2.28234791E-04  3.34005247E-04  4.74200239E-04  3.90281643E-04  3.15541649E-04  3.36144978E-04  4.03969537E-04  3.41193631E-04  3.30846445E-04  2.23931139E-04  3.50151558E-04  4.76951321E-04  4.39756818E-04  4.12956916E-04  4.35934370E-04  3.15724322E-04  2.03612483E-04  2.03014759E-04  2.25122042E-04
    2.32447356E-04  2.62186340E-04  2.42128809E-04  2.09951378E-04  1.83156281E-04  1.05283605E-04  7.80350783E-05  9.52683842E-05  1.60749813E-04  1.48818033E-04  8.41617254E-05  1.01125572E-04  1.24450488E-04  2.53813104E-04  4.27353750E-04  5.32653642E-04  2.61531213E-04  1.80755424E-04  2.43989089E-04  4.87688978E-04
    8.10190543E-04  6.12197780E-04  3.10376460E-04  1.47253711E-04  9.89171775E-05  1.06109753E-04  1.93751195E-04  2.48284428E-04  3.23921371E-04  3.71759386E-04  2.20610402E-04  1.65123418E-04  1.98895779E-04  9.65579508E-05  7.09524971E-05  1.08325602E-04  1.35776650E-04  9.70333883E-05  8.19126970E-05  1.12291393E-04
    1.12237075E-04  2.00241157E-04  2.62741832E-04  2.69721684E-04  1.60289563E-04  1.64966316E-04  1.60529778E-04  1.54121576E-04  1.42567443E-04  1.47696901E-04  2.28542723E-04  2.39215019E-04  2.12397199E-04  2.19827747E-04  2.54029424E-04  2.74740140E-04  2.54692231E-04  1.73737608E-04  1.58250578E-04  2.65583928E-04
    2.44668401E-04  2.21730337E-04  1.88200487E-04  2.24186296E-04  3.48926576E-04  5.07211174E-04  5.88176882E-04  3.40575149E-04  2.20359823E-04  1.30102102E-04  9.08740250E-05  1.21370097E-04  1.48056141E-04  1.30842103E-04  1.40854125E-04  1.09386618E-04  1.69491577E-04  2.45580461E-04  3.99720474E-04  5.92529017E-04
    1.53396886E-04  2.12660625E-04  2.95002304E-04  3.64340970E-04  3.95665903E-04  3.16871401E-04  3.28266879E-04  3.64201824E-04  2.84013590E-04  3.67465972E-04  2.69476581E-04  2.49044540E-04  3.77953311E-04  3.51695793E-04  3.70313972E-04  4.96787091E-04  4.20548942E-04  2.67543217E-04  1.87284064E-04  2.58473790E-04
    3.04605952E-04  2.84692819E-04  2.70269455E-04  1.93186136E-04  1.87455225E-04  1.40085005E-04  7.23781844E-05  8.25391189E-05  1.20472699E-04  1.71863179E-04  9.11759279E-05  7.72226154E-05  9.59084262E-05  1.70892133E-04  3.28139675E-04  4.21426685E-04  2.67004305E-04  1.68462455E-04  2.21587278E-04  3.61102019E-04
    7.54164975E-04  7.05944436E-04  4.48588249E-04  1.47428147E-04  1.04224424E-04  1.14080961E-04  1.85435889E-04  2.70972870E-04  3.19427103E-04  4.24544137E-04  3.18516137E-04  1.75070259E-04  2.34847672E-04  1.54248033E-04  8.95755189E-05  1.05311249E-04  1.44648852E-04  1.18166508E-04  8.12266013E-05  1.22091108E-04
    1.29644647E-04  1.58014775E-04  2.43220225E-04  2.51258070E-04  2.02481831E-04  1.75820006E-04  1.97722329E-04  1.88249104E-04  1.64197071E-04  1.26429165E-04  2.02717479E-04  2.86238044E-04  2.51151186E-04  2.23267465E-04  2.33676251E-04  2.77416585E-04  2.63675306E-04  1.79558817E-04  1.34238017E-04  2.15513627E-04
    2.31217491E-04  1.88989137E-04  1.89872582E-04  1.94535953E-04  3.00865702E-04  4.94149712E-04  6.24108739E-04  4.62164083E-04  2.85733238E-04  1.58824539E-04  1.04138075E-04  1.38208980E-04  1.45329358E-04  1.37466217E-04  1.48165793E-04  1.15440011E-04  1.21549357E-04  1.81973773E-04  2.79234320E-04  4.80732563E-04
    1.65967005E-04  2.05025149E-04  2.86999372E-04  3.38123534E-04  3.51895205E-04  3.21505617E-04  3.44304007E-04  3.22144093E-04  2.81033021E-04  3.04938108E-04  3.35219609E-04  2.32283793E-04  2.68030622E-04  3.30644971E-04  3.07942159E-04  4.40876271E-04  5.59139046E-04  3.45765935E-04  2.04465995E-04  2.08239390E-04
    2.88515212E-04  3.94544275E-04  2.64568449E-04  1.92851544E-04  1.74850803E-04  1.78135561E-04  8.69021517E-05  7.41869913E-05  9.92129005E-05  1.44067153E-04  1.05417243E-04  7.48556015E-05  7.42740875E-05  1.06796490E-04  2.34954985E-04  3.48677720E-04  3.00257494E-04  1.68425667E-04  2.04665246E-04  2.92857070E-04
    6.10792120E-04  8.75139837E-04  5.33096491E-04  1.89390841E-04  9.74567459E-05  1.36710191E-04  1.60436402E-04  3.53831959E-04  3.67760743E-04  4.81050953E-04  4.09630151E-04  1.99694153E-04  2.28759633E-04  1.94811822E-04  1.44580453E-04  1.36193738E-04  1.30187587E-04  1.27501081E-04  9.95695895E-05  1.19459241E-04
    1.64083398E-04  1.39998392E-04  2.13744037E-04  2.34226243E-04  2.15126140E-04  1.74813754E-04  2.19999316E-04  2.56639617E-04  2.26149250E-04  1.52027713E-04  1.59238800E-04  2.87218741E-04  2.37156204E-04  2.41883383E-04  2.52594407E-04  2.72629260E-04  2.70632569E-04  1.73851187E-04  1.17391202E-04  1.71880258E-04
    2.50655614E-04  1.76965705E-04  1.63315313E-04  1.80692325E-04  2.37606621E-04  4.71311468E-04  6.56872970E-04  5.75507959E-04  3.80892198E-04  2.27131769E-04  1.26364099E-04  1.75955201E-04  1.63004565E-04  1.31443767E-04  1.39135060E-04  1.16672012E-04  9.31023749E-05  1.61821880E-04  2.02917807E-04  3.87995976E-04
    2.02137421E-04  2.39114155E-04  2.96541279E-04  3.39004435E-04  3.04945211E-04  3.84588095E-04  3.15955461E-04  3.15711193E-04  3.04473303E-04  2.41688692E-04  3.25754055E-04  2.71947328E-04  2.34819715E-04  3.24321897E-04  2.69165437E-04  3.73872357E-04  5.73424124E-04  3.49969997E-04  2.16379612E-04  1.71192226E-04
    2.09683432E-04  3.82483645E-04  3.11456936E-04  1.97869478E-04  1.86715976E-04  2.16881526E-04  1.35482989E-04  7.86962308E-05  9.52797583E-05  1.14212929E-04  1.24794641E-04  7.77637250E-05  6.04903167E-05  8.91720474E-05  1.70366688E-04  3.01113484E-04  3.08122418E-04  1.84306872E-04  1.68158655E-04  2.59944933E-04
    5.24144835E-04  9.34255153E-04  6.98919837E-04  2.42866089E-04  1.01663069E-04  1.30853147E-04  1.57258886E-04  3.83267715E-04  4.46743690E-04  4.69320037E-04  5.32687451E-04  2.87618450E-04  2.00491154E-04  1.99555630E-04  1.69778760E-04  1.81895366E-04  1.35108029E-04  1.37353884E-04  1.20096680E-04  1.15181635E-04
    1.71054528E-04  1.32072679E-04  2.00650953E-04  2.08855894E-04  1.90739184E-04  1.93415228E-04  2.32733495E-04  3.05808997E-04  2.94001718E-04  2.33665587E-04  1.53861898E-04  2.17010165E-04  2.19623506E-04  2.64775257E-04  2.65290242E-04  2.77694962E-04  2.72609824E-04  1.98064281E-04  1.16200990E-04  1.30571880E-04
    2.24536542E-04  2.14071527E-04  1.37644886E-04  1.68563409E-04  1.97531879E-04  3.52797919E-04  6.21042567E-04  6.60628669E-04  5.82411461E-04  3.68672522E-04  1.75802117E-04  1.84886623E-04  2.10045548E-04  1.54828365E-04  1.36872415E-04  1.00025761E-04  7.88434067E-05  1.39057611E-04  1.65787860E-04  2.88793575E-04
    2.25976949E-04  2.73529579E-04  3.40015654E-04  3.04268702E-04  3.46691002E-04  4.17299298E-04  3.66441629E-04  3.44836450E-04  2.90460276E-04  2.25165786E-04  2.91810278E-04  2.54577196E-04  2.59440787E-04  3.20746076E-04  2.66891912E-04  2.96326148E-04  4.78203047E-04  3.20640181E-04  1.98007985E-04  1.43200989E-04
    1.56603660E-04  2.34521798E-04  3.46651196E-04  2.11870255E-04  2.17568921E-04  2.57836115E-04  2.23721393E-04  1.16855100E-04  1.12219397E-04  1.12845850E-04  1.16828199E-04  7.47670560E-05  6.04579705E-05  7.90341377E-05  1.51113301E-04  2.58848804E-04  3.10847416E-04  2.17536089E-04  1.36710371E-04  2.06577453E-04
    3.68110949E-04  7.63801255E-04  7.49564547E-04  3.38930315E-04  1.46176398E-04  1.23779529E-04  1.89990353E-04  3.79166123E-04  5.63577591E-04  5.08293010E-04  5.22965757E-04  4.08022820E-04  2.17050693E-04  1.64392656E-04  2.02282268E-04  1.76881188E-04  1.81932071E-04  1.66667975E-04  1.37515792E-04  1.37813305E-04
    1.52955806E-04  1.46903866E-04  1.66127988E-04  1.85218076E-04  1.82163927E-04  1.75272211E-04  2.16630489E-04  3.37949998E-04  3.76050636E-04  3.56775976E-04  2.16046831E-04  1.72179714E-04  2.08264993E-04  2.36782349E-04  2.84532490E-04  3.12931662E-04  2.69131001E-04  2.03449730E-04  1.20291665E-04  1.05950276E-04
    1.74422962E-04  2.31283736E-04  1.60942775E-04  1.39431323E-04  1.61041072E-04  2.52946769E-04  4.78263102E-04  6.51478947E-04  8.83987303E-04  5.07816406E-04  2.34529608E-04  2.17585875E-04  2.50257015E-04  1.85587074E-04  1.32313723E-04  8.14662940E-05  8.24621428E-05  1.12714005E-04  1.71011251E-04  2.09293303E-04
    2.35370696E-04  2.64309410E-04  3.89555358E-04  3.67496347E-04  4.04338956E-04  3.64245135E-04  4.58112978E-04  3.73080276E-04  3.14517892E-04  2.50377494E-04  2.54187732E-04  2.52192251E-04  2.68891252E-04  3.25018114E-04  3.32012904E-04  2.19937476E-04  3.29996537E-04  3.25657119E-04  1.91499240E-04  1.10065900E-04
    1.19582841E-04  1.53323250E-04  2.90032017E-04  2.23421762E-04  2.37565808E-04  3.39812364E-04  3.17740869E-04  2.01597550E-04  1.24445744E-04  1.26973712E-04  1.29516015E-04  7.83591915E-05  5.97639671E-05  7.50479228E-05  1.49448267E-04  2.33498383E-04  3.05759582E-04  2.38740581E-04  1.22009275E-04  1.55445204E-04
    2.50894132E-04  5.87959230E-04  6.43923885E-04  4.84727209E-04  2.10651486E-04  1.58582288E-04  2.28614816E-04  4.07461468E-04  7.28867393E-04  6.33818159E-04  4.97507700E-04  3.95397323E-04  3.04808877E-04  1.51191160E-04  1.79362798E-04  2.10025589E-04  2.02462876E-04  1.92538941E-04  1.70712049E-04  1.74672919E-04
    1.51424304E-04  1.85041728E-04  1.61146614E-04  1.71835533E-04  1.85218388E-04  1.36416692E-04  1.81449966E-04  3.16125675E-04  3.49915746E-04  3.74169003E-04  3.73515133E-04  1.99977470E-04  1.79145525E-04  1.80163523E-04  3.02273903E-04  3.30789300E-04  3.00805093E-04  2.07920239E-04  1.18700308E-04  1.06238623E-04
    1.32727348E-04  1.96684674E-04  1.82985350E-04  1.21164716E-04  1.38307580E-04  2.08804523E-04  3.08805628E-04  5.48079902E-04       0.00100080  7.51383903E-04  2.84035875E-04  2.05589935E-04  2.71705065E-04  2.17915360E-04  1.49067485E-04  9.17257900E-05  8.01962818E-05  9.78991328E-05  2.01150397E-04  1.91471632E-04
    2.53624752E-04  2.59310126E-04  3.93182455E-04  4.26602894E-04  3.94852241E-04  4.02104530E-04  4.97589780E-04  4.06250158E-04  3.23319357E-04  2.73782399E-04  2.56367323E-04  2.78400838E-04  2.63347286E-04  3.14961910E-04  3.73114484E-04  2.31291538E-04  2.37254805E-04  2.98714514E-04  2.00318869E-04  1.01190481E-04
    9.27638274E-05  1.10451598E-04  1.73076325E-04  2.10762555E-04  2.33335446E-04  3.76426934E-04  4.29812268E-04  2.66134707E-04  1.83949274E-04  1.28974522E-04  1.44466880E-04  8.48277805E-05  6.47648292E-05  7.78553592E-05  1.39176040E-04  2.27169638E-04  3.00342988E-04  2.52210244E-04  1.46143004E-04  1.23219694E-04
    2.07791184E-04  3.85195650E-04  5.43509791E-04  4.42527500E-04  3.14654719E-04  2.42741774E-04  2.35858222E-04  4.73869485E-04  8.41109104E-04  8.47456041E-04  5.41603100E-04  3.81752661E-04  3.59188659E-04  1.95206702E-04  1.35489439E-04  2.51185493E-04  2.20180213E-04  1.99307593E-04  1.90404645E-04  1.97132519E-04
    1.90238333E-04  2.38937754E-04  1.82132039E-04  1.87629956E-04  1.69534859E-04  1.36447923E-04  1.34357709E-04  2.64258001E-04  3.10905351E-04  3.15437408E-04  4.58927721E-04  2.97195987E-04  1.81857810E-04  1.51236548E-04  2.59457304E-04  3.12543121E-04  3.73225969E-04  2.43665373E-04  1.21095538E-04  1.05033255E-04
    1.34701247E-04  1.47809368E-04  1.91436858E-04  1.28593913E-04  1.42420115E-04  1.48318435E-04  2.29308531E-04  4.61172778E-04  8.31445929E-04  9.95432991E-04  3.25818683E-04  1.70464461E-04  2.65909802E-04  2.30330010E-04  1.95408800E-04  1.12043740E-04  8.44029224E-05  1.11544758E-04  1.62424610E-04  2.25301540E-04
    2.90045420E-04  2.45325238E-04  3.52606472E-04  4.80145955E-04  4.55310072E-04  3.79961637E-04  4.70229144E-04  4.11187544E-04  3.12410141E-04  2.98222176E-04  2.87977777E-04  2.64157464E-04  2.91955120E-04  2.99708623E-04  4.17190466E-04  3.04467916E-04  2.17277101E-04  2.52653184E-04  2.56545984E-04  1.11692482E-04
    5.84908647E-05  7.78604804E-05  1.12964728E-04  1.80554158E-04  2.12710614E-04  3.28770910E-04  5.12055647E-04  3.24842720E-04  2.20564943E-04  1.38814332E-04  1.33613180E-04  1.14875700E-04  6.24525732E-05  7.78951367E-05  1.32749189E-04  1.94041693E-04  2.93204002E-04  3.07502340E-04  1.68424935E-04  1.27325307E-04
    1.94471708E-04  2.78819462E-04  4.67817468E-04  4.10248059E-04  3.56558226E-04  3.08743653E-04  2.79539281E-04  5.34733153E-04  8.33377576E-04  9.72492952E-04  7.23690193E-04  4.45703351E-04  3.60721724E-04  2.55268922E-04  1.46854559E-04  2.20292643E-04  2.90679160E-04  2.26931635E-04  1.80829145E-04  1.73154236E-04
    2.15335510E-04  3.00523742E-04  2.58533187E-04  2.09572218E-04  1.64920325E-04  1.46332977E-04  1.23326137E-04  2.38009333E-04  2.96478655E-04  2.56451788E-04  3.57978971E-04  3.97899866E-04  1.92229658E-04  1.60804750E-04  2.04416530E-04  2.68480876E-04  3.52050738E-04  2.79564010E-04  1.64981946E-04  9.14608061E-05
    1.60475507E-04  1.38489570E-04  1.76406069E-04  1.47509729E-04  1.41310439E-04  1.37800903E-04  1.72416384E-04  3.25264071E-04  6.69949393E-04       0.00100029  4.64410992E-04  1.63652706E-04  2.05572050E-04  2.43850124E-04  2.22655806E-04  1.28714519E-04  9.63504241E-05  1.13270336E-04  1.34847582E-04  2.04959202E-04
    2.49583666E-04  2.70199198E-04  3.53816581E-04  4.53096147E-04  4.41689769E-04  3.43712187E-04  3.94251339E-04  4.42759490E-04  2.91910247E-04  2.70353488E-04  3.32228477E-04  3.15125350E-04  3.33795531E-04  3.16621881E-04  3.56495551E-04  3.83671711E-04  2.54894290E-04  2.24294154E-04  2.67701411E-04  1.40718597E-04
    5.54462623E-05  6.18930930E-05  7.67592720E-05  1.36100995E-04  1.79354206E-04  2.72750994E-04  4.92127715E-04  3.98521235E-04  2.12493330E-04  1.61205352E-04  1.12396285E-04  1.17998929E-04  7.14570016E-05  7.03850783E-05  1.12335392E-04  1.64149526E-04  2.36719863E-04  2.89533729E-04  2.20144149E-04  1.53464594E-04
    1.82515887E-04  2.68292398E-04  3.59817230E-04  4.84109604E-04  3.55809119E-04  2.86399391E-04  3.18300403E-04  5.47790556E-04  8.34552362E-04  8.41820838E-04  8.78884723E-04  5.82880451E-04  3.80008613E-04  2.69345030E-04  1.86946287E-04  1.71047158E-04  3.03000962E-04  2.93019773E-04  1.69996326E-04  1.82346012E-04
    2.28668671E-04  2.73209966E-04  3.75540580E-04  2.32570700E-04  1.99296858E-04  1.52430554E-04  1.47101836E-04  2.20470639E-04  3.14882679E-04  2.19665823E-04  2.46880022E-04  3.78081516E-04  2.10120017E-04  1.56191511E-04  1.54798836E-04  2.62085800E-04  2.51693252E-04  3.18303902E-04  2.19725192E-04  9.41640870E-05
    1.56291695E-04  1.62444175E-04  1.31474519E-04  1.69564462E-04  1.45144040E-04  1.50936228E-04  1.48450437E-04  2.35180019E-04  5.57331640E-04  8.05477560E-04  5.82638427E-04  1.88216649E-04  1.70931162E-04  2.71882691E-04  2.27681172E-04  1.36636769E-04  9.40548040E-05  9.56505834E-05  1.28004833E-04  1.69846206E-04
    2.79281938E-04  3.03731218E-04  3.59697056E-04  3.94731112E-04  3.60593061E-04  3.36289303E-04  3.27706660E-04  4.92854792E-04  3.38729134E-04  2.32437960E-04  3.28514930E-04  3.75337778E-04  3.58031445E-04  3.84261533E-04  3.37183187E-04  3.99594518E-04  3.60453035E-04  2.56759300E-04  2.20748979E-04  1.90142626E-04
    7.47194930E-05  5.03081019E-05  5.56045299E-05  1.00208031E-04  1.52444601E-04  2.23745341E-04  4.01698604E-04  4.45157585E-04  2.38541972E-04  1.71639789E-04  1.05828489E-04  9.47117229E-05  8.03143270E-05  8.51514434E-05  9.52867633E-05  1.33094134E-04  1.84939670E-04  2.43365939E-04  2.59595693E-04  1.51920710E-04
    1.57145801E-04  2.36840078E-04  2.94984426E-04  4.47528326E-04  3.73245374E-04  3.36938562E-04  2.96118974E-04  5.00387275E-04  8.90945097E-04  7.99675551E-04  8.12559975E-04  6.38479344E-04  4.28723997E-04  2.79783680E-04  2.35546905E-04  1.54528076E-04  2.55845960E-04  3.03425164E-04  1.75616830E-04  1.91945203E-04
    2.51574623E-04  2.50753818E-04  3.99983756E-04  2.90725293E-04  2.40300307E-04  2.06940298E-04  1.96296614E-04  2.23173259E-04  3.40189172E-04  2.16877978E-04  2.00354291E-04  2.94301348E-04  1.89432939E-04  1.45726356E-04  1.37150085E-04  1.96888072E-04  2.00515599E-04  2.56231646E-04  2.64084217E-04  1.30814907E-04
    1.29108884E-04  1.98043666E-04  1.05445863E-04  1.45109937E-04  1.44801787E-04  1.52184397E-04  1.35639147E-04  2.02738189E-04  4.12082871E-04  6.63247286E-04  6.16826407E-04  2.51781998E-04  1.43838023E-04  2.69648651E-04  2.42879966E-04  1.49492413E-04  9.36102079E-05  8.56551548E-05  1.18173069E-04  1.25189987E-04
    3.73356459E-04  3.49471867E-04  3.89028136E-04  3.58191937E-04  3.42261644E-04  3.39825044E-04  2.91918970E-04  4.27629810E-04  4.18419740E-04  2.52750828E-04  2.54081436E-04  4.10455023E-04  4.34342200E-04  5.11249331E-04  3.31804224E-04  3.53919680E-04  4.92184912E-04  3.34399454E-04  2.07471419E-04  1.95127498E-04
    1.04057487E-04  5.84166081E-05  5.18368846E-05  6.18348512E-05  1.31672338E-04  1.80642607E-04  3.34385333E-04  4.81294977E-04  2.94896612E-04  1.73100045E-04  1.21384024E-04  7.25804547E-05  7.59652293E-05  9.77441974E-05  9.14270438E-05  1.06521304E-04  1.48795403E-04  2.00560138E-04  2.16066859E-04  1.76332824E-04