# File generated by Flopy version 3.7.0 on 07/29/2024 at 16:32:46.
BEGIN options
END options

BEGIN dimensions
  MAXBOUND  5000
END dimensions

BEGIN period  1
  1 1 7.05432031E-09
  1 2 7.82652588E-09
  1 3 8.49779002E-09
  1 4 9.67370103E-09
  1 5 1.00389550E-08
  1 6 1.01548818E-08
  1 7 9.09529001E-09
  1 8 8.32817064E-09
  1 9 8.70423115E-09
  1 10 9.54927622E-09
  1 11 1.00563280E-08
  1 12 1.09155371E-08
  1 13 1.09628663E-08
  1 14 1.12029572E-08
  1 15 9.67804491E-09
  1 16 7.98061319E-09
  1 17 7.08503694E-09
  1 18 6.86661471E-09
  1 19 6.61703417E-09
  1 20 7.69352023E-09
  1 21 8.96099462E-09
  1 22 1.01276426E-08
  1 23 1.01810453E-08
  1 24 9.14759286E-09
  1 25 8.38158141E-09
  1 26 8.32784232E-09
  1 27 7.08157444E-09
  1 28 6.61828646E-09
  1 29 6.33303893E-09
  1 30 5.92922551E-09
  1 31 6.23461671E-09
  1 32 6.44110129E-09
  1 33 7.61589401E-09
  1 34 7.71924281E-09
  1 35 7.25308259E-09
  1 36 6.61107223E-09
  1 37 6.21557712E-09
  1 38 6.10338655E-09
  1 39 6.21035008E-09
  1 40 6.56073913E-09
  1 41 7.42719651E-09
  1 42 7.11250811E-09
  1 43 7.22861251E-09
  1 44 7.72460283E-09
  1 45 8.60793429E-09
  1 46 9.55189601E-09
  1 47 1.09943436E-08
  1 48 1.16103680E-08
  1 49 1.16654970E-08
  1 50 1.17407130E-08
  1 51 1.11754908E-08
  1 52 1.09619612E-08
  1 53 1.24160292E-08
  1 54 1.20031290E-08
  1 55 9.63388115E-09
  1 56 8.93976572E-09
  1 57 8.98308136E-09
  1 58 7.98068384E-09
  1 59 7.66271931E-09
  1 60 7.41432189E-09
  1 61 7.26381597E-09
  1 62 6.86667023E-09
  1 63 5.79137538E-09
  1 64 5.14691165E-09
  1 65 4.86758272E-09
  1 66 4.48702134E-09
  1 67 3.79435884E-09
  1 68 3.70680012E-09
  1 69 4.05399660E-09
  1 70 4.92628380E-09
  1 71 5.72375333E-09
  1 72 6.04435546E-09
  1 73 6.29839636E-09
  1 74 7.22800475E-09
  1 75 7.42905818E-09
  1 76 6.85103199E-09
  1 77 5.77667799E-09
  1 78 4.97356094E-09
  1 79 4.68950392E-09
  1 80 4.71955826E-09
  1 81 5.24010695E-09
  1 82 6.24660853E-09
  1 83 8.23395740E-09
  1 84 9.70267621E-09
  1 85 1.11086946E-08
  1 86 1.27740548E-08
  1 87 1.33481144E-08
  1 88 1.38567241E-08
  1 89 1.28425050E-08
  1 90 1.23564312E-08
  1 91 1.19056302E-08
  1 92 1.14934262E-08
  1 93 1.13850563E-08
  1 94 1.02175254E-08
  1 95 1.03331068E-08
  1 96 1.04658062E-08
  1 97 1.02909584E-08
  1 98 8.36302496E-09
  1 99 7.68377022E-09
  1 100 6.41982883E-09
  1 101 6.73704613E-09
  1 102 7.54549835E-09
  1 103 8.19445803E-09
  1 104 9.20376357E-09
  1 105 9.84246657E-09
  1 106 1.01653896E-08
  1 107 9.22553965E-09
  1 108 8.20783163E-09
  1 109 8.04910351E-09
  1 110 9.13344512E-09
  1 111 9.77393156E-09
  1 112 1.05426159E-08
  1 113 1.08418210E-08
  1 114 1.13691469E-08
  1 115 1.02706785E-08
  1 116 8.58674564E-09
  1 117 7.28793094E-09
  1 118 7.03900565E-09
  1 119 6.62267452E-09
  1 120 7.13681246E-09
  1 121 8.45081881E-09
  1 122 1.01600963E-08
  1 123 1.03516818E-08
  1 124 9.61620777E-09
  1 125 8.54339019E-09
  1 126 8.33614710E-09
  1 127 7.81436938E-09
  1 128 6.87618848E-09
  1 129 6.48307899E-09
  1 130 6.19608122E-09
  1 131 6.31757094E-09
  1 132 6.56709329E-09
  1 133 7.29327056E-09
  1 134 7.86434845E-09
  1 135 7.64313427E-09
  1 136 7.02743031E-09
  1 137 6.38391994E-09
  1 138 6.33838476E-09
  1 139 6.29273143E-09
  1 140 6.66075568E-09
  1 141 7.34709957E-09
  1 142 7.62093425E-09
  1 143 7.24746189E-09
  1 144 7.74585563E-09
  1 145 8.50538054E-09
  1 146 9.17589399E-09
  1 147 1.04165951E-08
  1 148 1.16749806E-08
  1 149 1.15964088E-08
  1 150 1.20582163E-08
  1 151 1.18365033E-08
  1 152 1.10037691E-08
  1 153 1.17161940E-08
  1 154 1.26353122E-08
  1 155 1.02832772E-08
  1 156 8.85750064E-09
  1 157 9.04436189E-09
  1 158 8.14241865E-09
  1 159 7.71173777E-09
  1 160 7.30270028E-09
  1 161 7.17505976E-09
  1 162 6.90735771E-09
  1 163 6.24801255E-09
  1 164 5.16652539E-09
  1 165 4.87036494E-09
  1 166 4.52541147E-09
  1 167 3.98425201E-09
  1 168 3.62053034E-09
  1 169 3.90178403E-09
  1 170 4.41123144E-09
  1 171 5.38634425E-09
  1 172 5.80402804E-09
  1 173 5.93513853E-09
  1 174 6.79019897E-09
  1 175 7.53516930E-09
  1 176 6.99597931E-09
  1 177 6.29140704E-09
  1 178 5.17484452E-09
  1 179 4.81749389E-09
  1 180 4.67317278E-09
  1 181 5.00037688E-09
  1 182 5.73766359E-09
  1 183 7.30536734E-09
  1 184 9.28146212E-09
  1 185 1.05413406E-08
  1 186 1.18871005E-08
  1 187 1.30072365E-08
  1 188 1.36086856E-08
  1 189 1.28850717E-08
  1 190 1.24326456E-08
  1 191 1.19749849E-08
  1 192 1.13974941E-08
  1 193 1.09599248E-08
  1 194 1.01949268E-08
  1 195 9.75782727E-09
  1 196 1.01498108E-08
  1 197 1.03427975E-08
  1 198 8.74348369E-09
  1 199 7.92781965E-09
  1 200 6.69904656E-09
  1 201 6.37837238E-09
  1 202 7.13299334E-09
  1 203 7.69887981E-09
  1 204 8.43573770E-09
  1 205 9.31488050E-09
  1 206 9.54763047E-09
  1 207 9.14694255E-09
  1 208 8.03655033E-09
  1 209 7.47314533E-09
  1 210 8.33814588E-09
  1 211 9.22505159E-09
  1 212 9.91122726E-09
  1 213 1.04284914E-08
  1 214 1.09874970E-08
  1 215 1.08771304E-08
  1 216 9.03543354E-09
  1 217 7.55375802E-09
  1 218 7.20581001E-09
  1 219 6.79461411E-09
  1 220 6.82258077E-09
  1 221 7.93897448E-09
  1 222 9.54336450E-09
  1 223 1.06363990E-08
  1 224 1.03125124E-08
  1 225 8.95587157E-09
  1 226 8.43959315E-09
  1 227 8.38175070E-09
  1 228 7.10271162E-09
  1 229 6.78216106E-09
  1 230 6.65749101E-09
  1 231 6.41673758E-09
  1 232 6.82143064E-09
  1 233 7.05709950E-09
  1 234 8.01122110E-09
  1 235 7.88660190E-09
  1 236 7.40804962E-09
  1 237 6.50429838E-09
  1 238 6.35253678E-09
  1 239 6.37276607E-09
  1 240 6.57400746E-09
  1 241 7.06548701E-09
  1 242 7.84851668E-09
  1 243 7.24355685E-09
  1 244 7.50170383E-09
  1 245 8.02099175E-09
  1 246 8.77325707E-09
  1 247 9.74780437E-09
  1 248 1.12215312E-08
  1 249 1.13172255E-08
  1 250 1.19203587E-08
  1 251 1.21083148E-08
  1 252 1.11972294E-08
  1 253 1.11486081E-08
  1 254 1.25055739E-08
  1 255 1.11482838E-08
  1 256 9.06904379E-09
  1 257 8.99871426E-09
  1 258 8.62858181E-09
  1 259 7.93266730E-09
  1 260 7.41272932E-09
  1 261 7.37236719E-09
  1 262 7.06639966E-09
  1 263 6.56163016E-09
  1 264 5.45914774E-09
  1 265 5.09001234E-09
  1 266 4.77516520E-09
  1 267 4.28788791E-09
  1 268 3.71316830E-09
  1 269 3.81102677E-09
  1 270 4.17485976E-09
  1 271 5.19367260E-09
  1 272 5.74361380E-09
  1 273 5.84487333E-09
  1 274 6.42706730E-09
  1 275 7.45439937E-09
  1 276 7.29491202E-09
  1 277 6.75645761E-09
  1 278 5.55714427E-09
  1 279 5.01705791E-09
  1 280 4.77459520E-09
  1 281 4.89957839E-09
  1 282 5.41911011E-09
  1 283 6.76044793E-09
  1 284 8.74877352E-09
  1 285 9.92608198E-09
  1 286 1.11482965E-08
  1 287 1.29196110E-08
  1 288 1.33582867E-08
  1 289 1.35399088E-08
  1 290 1.27350690E-08
  1 291 1.22242236E-08
  1 292 1.15952032E-08
  1 293 1.10883457E-08
  1 294 1.04614764E-08
  1 295 9.63147050E-09
  1 296 9.99659570E-09
  1 297 1.02466619E-08
  1 298 9.63732608E-09
  1 299 8.15094204E-09
  1 300 7.28494536E-09
  1 301 6.39203359E-09
  1 302 6.94435336E-09
  1 303 7.55268320E-09
  1 304 8.20551780E-09
  1 305 9.36899488E-09
  1 306 9.49656020E-09
  1 307 9.55212613E-09
  1 308 8.45905932E-09
  1 309 7.40217443E-09
  1 310 7.79904622E-09
  1 311 8.89196658E-09
  1 312 9.80578417E-09
  1 313 1.01939020E-08
  1 314 1.06703556E-08
  1 315 1.12684344E-08
  1 316 9.63568383E-09
  1 317 7.97689846E-09
  1 318 7.15820956E-09
  1 319 6.83047980E-09
  1 320 6.55640793E-09
  1 321 7.34360624E-09
  1 322 8.59983592E-09
  1 323 1.05921480E-08
  1 324 1.03341201E-08
  1 325 9.03462808E-09
  1 326 8.32966588E-09
  1 327 8.22543113E-09
  1 328 7.28523261E-09
  1 329 6.78721760E-09
  1 330 6.60477014E-09
  1 331 6.29424890E-09
  1 332 6.64911214E-09
  1 333 6.79363428E-09
  1 334 7.66747451E-09
  1 335 7.75592737E-09
  1 336 7.50004644E-09
  1 337 6.82058597E-09
  1 338 6.29623681E-09
  1 339 6.34014975E-09
  1 340 6.44653254E-09
  1 341 6.82957786E-09
  1 342 7.66354589E-09
  1 343 7.44362981E-09
  1 344 7.41090145E-09
  1 345 7.69960377E-09
  1 346 8.61766178E-09
  1 347 9.13229856E-09
  1 348 1.04881554E-08
  1 349 1.12938573E-08
  1 350 1.16852547E-08
  1 351 1.22732863E-08
  1 352 1.18333106E-08
  1 353 1.10131731E-08
  1 354 1.20687514E-08
  1 355 1.20655255E-08
  1 356 9.60070556E-09
  1 357 8.74099714E-09
  1 358 9.01299827E-09
  1 359 8.05427875E-09
  1 360 7.54061769E-09
  1 361 7.33488849E-09
  1 362 7.09570188E-09
  1 363 6.64619130E-09
  1 364 5.84756502E-09
  1 365 5.16194293E-09
  1 366 4.87354612E-09
  1 367 4.46319453E-09
  1 368 3.84782851E-09
  1 369 3.70402257E-09
  1 370 4.07341846E-09
  1 371 4.84088347E-09
  1 372 5.65314258E-09
  1 373 5.79796175E-09
  1 374 6.08020854E-09
  1 375 7.15834445E-09
  1 376 7.74452274E-09
  1 377 7.12819111E-09
  1 378 6.24228371E-09
  1 379 5.26407330E-09
  1 380 4.94197546E-09
  1 381 5.00733027E-09
  1 382 5.34965502E-09
  1 383 6.29457033E-09
  1 384 8.13675159E-09
  1 385 9.74504541E-09
  1 386 1.07259440E-08
  1 387 1.23125403E-08
  1 388 1.30716806E-08
  1 389 1.37341546E-08
  1 390 1.27437076E-08
  1 391 1.21590025E-08
  1 392 1.17494640E-08
  1 393 1.12397701E-08
  1 394 1.04801072E-08
  1 395 9.56510252E-09
  1 396 9.50256706E-09
  1 397 9.88064359E-09
  1 398 9.99096522E-09
  1 399 8.39809936E-09
  1 400 7.69650198E-09
  1 401 6.25832525E-09
  1 402 6.77204774E-09
  1 403 7.41680617E-09
  1 404 8.02521087E-09
  1 405 8.99627233E-09
  1 406 9.47298556E-09
  1 407 9.58856910E-09
  1 408 8.75790186E-09
  1 409 7.62476853E-09
  1 410 7.28298648E-09
  1 411 8.45919546E-09
  1 412 9.69243015E-09
  1 413 1.02176036E-08
  1 414 1.04772333E-08
  1 415 1.16058049E-08
  1 416 1.07339245E-08
  1 417 8.69566837E-09
  1 418 7.41084778E-09
  1 419 7.23768940E-09
  1 420 6.85623331E-09
  1 421 7.15111381E-09
  1 422 8.21339511E-09
  1 423 1.01904511E-08
  1 424 1.06354439E-08
  1 425 9.88901800E-09
  1 426 8.55472960E-09
  1 427 8.26633575E-09
  1 428 8.04223173E-09
  1 429 7.06258848E-09
  1 430 6.84355283E-09
  1 431 6.59175234E-09
  1 432 6.63345381E-09
  1 433 7.02164822E-09
  1 434 7.50179763E-09
  1 435 7.84807851E-09
  1 436 7.85055048E-09
  1 437 7.36400025E-09
  1 438 6.34830192E-09
  1 439 6.46345102E-09
  1 440 6.47364409E-09
  1 441 6.82791094E-09
  1 442 7.53402446E-09
  1 443 7.73325173E-09
  1 444 7.44751705E-09
  1 445 7.48666481E-09
  1 446 8.26007701E-09
  1 447 8.87309692E-09
  1 448 9.69964573E-09
  1 449 1.08874523E-08
  1 450 1.10607997E-08
  1 451 1.19097542E-08
  1 452 1.20432821E-08
  1 453 1.08851855E-08
  1 454 1.10438597E-08
  1 455 1.20526279E-08
  1 456 1.01129632E-08
  1 457 8.52656081E-09
  1 458 8.64359431E-09
  1 459 8.07179738E-09
  1 460 7.55203201E-09
  1 461 6.96596668E-09
  1 462 7.01884998E-09
  1 463 6.56301710E-09
  1 464 6.04526371E-09
  1 465 5.06687644E-09
  1 466 4.82919445E-09
  1 467 4.50297771E-09
  1 468 4.00640157E-09
  1 469 3.65351421E-09
  1 470 3.84365888E-09
  1 471 4.40813613E-09
  1 472 5.46028060E-09
  1 473 5.67866549E-09
  1 474 5.75295349E-09
  1 475 6.70311142E-09
  1 476 7.61291824E-09
  1 477 7.34713865E-09
  1 478 6.82923431E-09
  1 479 5.55428102E-09
  1 480 5.16126714E-09
  1 481 5.00266985E-09
  1 482 5.21466627E-09
  1 483 5.83380141E-09
  1 484 7.31441854E-09
  1 485 9.43613908E-09
  1 486 1.02425333E-08
  1 487 1.15495081E-08
  1 488 1.29982562E-08
  1 489 1.36165578E-08
  1 490 1.31461163E-08
  1 491 1.23761822E-08
  1 492 1.23008988E-08
  1 493 1.14969464E-08
  1 494 1.04643969E-08
  1 495 9.65396484E-09
  1 496 9.22444458E-09
  1 497 9.60116654E-09
  1 498 1.00117124E-08
  1 499 8.93373806E-09
  1 500 7.92211528E-09
  1 501 6.16517910E-09
  1 502 6.69957508E-09
  1 503 7.16077366E-09
  1 504 7.74158893E-09
  1 505 8.41951561E-09
  1 506 9.27959565E-09
  1 507 9.22262433E-09
  1 508 8.83445062E-09
  1 509 7.80748946E-09
  1 510 6.97010464E-09
  1 511 7.80781475E-09
  1 512 9.09518963E-09
  1 513 1.00153542E-08
  1 514 1.01827326E-08
  1 515 1.13351714E-08
  1 516 1.14275868E-08
  1 517 9.50614157E-09
  1 518 7.81360227E-09
  1 519 7.60362029E-09
  1 520 7.05721211E-09
  1 521 6.97418676E-09
  1 522 7.90540221E-09
  1 523 9.39423614E-09
  1 524 1.10554079E-08
  1 525 1.03801370E-08
  1 526 8.79474906E-09
  1 527 8.19947937E-09
  1 528 8.13623111E-09
  1 529 7.24270584E-09
  1 530 6.89797771E-09
  1 531 6.70146346E-09
  1 532 6.64235718E-09
  1 533 6.95376239E-09
  1 534 7.23665804E-09
  1 535 7.80735307E-09
  1 536 7.83663291E-09
  1 537 7.54769646E-09
  1 538 6.62876202E-09
  1 539 6.42265069E-09
  1 540 6.53284308E-09
  1 541 6.77580806E-09
  1 542 7.18094209E-09
  1 543 7.77884612E-09
  1 544 7.52534511E-09
  1 545 7.62238805E-09
  1 546 7.93170188E-09
  1 547 8.72621608E-09
  1 548 9.26079043E-09
  1 549 1.06317846E-08
  1 550 1.09553812E-08
  1 551 1.18109762E-08
  1 552 1.24368365E-08
  1 553 1.15690619E-08
  1 554 1.09196415E-08
  1 555 1.21314550E-08
  1 556 1.11286909E-08
  1 557 8.96516563E-09
  1 558 8.48382350E-09
  1 559 8.42657891E-09
  1 560 7.85318309E-09
  1 561 7.10682468E-09
  1 562 7.14345567E-09
  1 563 6.85563566E-09
  1 564 6.16177035E-09
  1 565 5.32389524E-09
  1 566 4.97099607E-09
  1 567 4.73911670E-09
  1 568 4.25274453E-09
  1 569 3.77064071E-09
  1 570 3.77061851E-09
  1 571 4.29375359E-09
  1 572 5.23228003E-09
  1 573 5.71754570E-09
  1 574 5.72925935E-09
  1 575 6.33266839E-09
  1 576 7.51764050E-09
  1 577 7.79496123E-09
  1 578 7.24140300E-09
  1 579 6.05625855E-09
  1 580 5.30785908E-09
  1 581 5.08586012E-09
  1 582 5.29764859E-09
  1 583 5.67106083E-09
  1 584 6.80640965E-09
  1 585 8.77706386E-09
  1 586 9.92454465E-09
  1 587 1.08479181E-08
  1 588 1.25950488E-08
  1 589 1.32629237E-08
  1 590 1.35046155E-08
  1 591 1.24488223E-08
  1 592 1.21488117E-08
  1 593 1.17226005E-08
  1 594 1.08875523E-08
  1 595 9.99895868E-09
  1 596 9.07621383E-09
  1 597 9.17107692E-09
  1 598 9.59750192E-09
  1 599 9.48696722E-09
  1 600 8.11087481E-09
  1 601 6.27523639E-09
  1 602 6.58914016E-09
  1 603 7.12838618E-09
  1 604 7.62359478E-09
  1 605 8.24684642E-09
  1 606 9.17959506E-09
  1 607 9.26239908E-09
  1 608 8.96385732E-09
  1 609 8.02784889E-09
  1 610 7.12438997E-09
  1 611 7.08567239E-09
  1 612 8.39371058E-09
  1 613 9.72236110E-09
  1 614 1.00161978E-08
  1 615 1.05944732E-08
  1 616 1.15195862E-08
  1 617 1.02112299E-08
  1 618 8.24872650E-09
  1 619 7.46959608E-09
  1 620 7.17776520E-09
  1 621 6.96526793E-09
  1 622 7.43445588E-09
  1 623 8.55005322E-09
  1 624 1.07377792E-08
  1 625 1.06343459E-08
  1 626 9.39347162E-09
  1 627 8.27612890E-09
  1 628 8.12248153E-09
  1 629 7.64176288E-09
  1 630 7.12512068E-09
  1 631 6.78927096E-09
  1 632 6.63054150E-09
  1 633 6.90292837E-09
  1 634 7.06408166E-09
  1 635 7.71352920E-09
  1 636 7.81513140E-09
  1 637 7.77053750E-09
  1 638 7.15090599E-09
  1 639 6.41384980E-09
  1 640 6.50930052E-09
  1 641 6.64901835E-09
  1 642 7.09731434E-09
  1 643 7.92205545E-09
  1 644 7.70009314E-09
  1 645 7.66712898E-09
  1 646 7.63731322E-09
  1 647 8.69309416E-09
  1 648 9.06356463E-09
  1 649 9.83882591E-09
  1 650 1.07102319E-08
  1 651 1.12578800E-08
  1 652 1.23368618E-08
  1 653 1.19585115E-08
  1 654 1.10210277E-08
  1 655 1.16005615E-08
  1 656 1.18643163E-08
  1 657 9.54976460E-09
  1 658 8.39732398E-09
  1 659 8.55058003E-09
  1 660 7.81791102E-09
  1 661 7.32843384E-09
  1 662 6.94478480E-09
  1 663 6.98451002E-09
  1 664 6.35404810E-09
  1 665 5.64216315E-09
  1 666 5.09020839E-09
  1 667 4.81420632E-09
  1 668 4.46197156E-09
  1 669 3.90700224E-09
  1 670 3.75995711E-09
  1 671 4.11998998E-09
  1 672 4.90839846E-09
  1 673 5.74659491E-09
  1 674 5.78516008E-09
  1 675 5.91126551E-09
  1 676 7.07911285E-09
  1 677 8.03978534E-09
  1 678 7.50751772E-09
  1 679 6.83509736E-09
  1 680 5.56387946E-09
  1 681 5.20828079E-09
  1 682 5.30618306E-09
  1 683 5.49906554E-09
  1 684 6.28890502E-09
  1 685 7.88803347E-09
  1 686 9.63377500E-09
  1 687 1.03706176E-08
  1 688 1.19885543E-08
  1 689 1.30939059E-08
  1 690 1.34236681E-08
  1 691 1.25811566E-08
  1 692 1.20200167E-08
  1 693 1.18874566E-08
  1 694 1.11616604E-08
  1 695 9.82936203E-09
  1 696 9.04583143E-09
  1 697 8.73989045E-09
  1 698 9.19024087E-09
  1 699 9.42303313E-09
  1 700 8.28046553E-09
  1 701 6.36948794E-09
  1 702 6.41012733E-09
  1 703 6.95414464E-09
  1 704 7.30422021E-09
  1 705 7.94557448E-09
  1 706 8.63545328E-09
  1 707 9.13554955E-09
  1 708 8.97166233E-09
  1 709 8.16202209E-09
  1 710 7.20150678E-09
  1 711 6.60095609E-09
  1 712 7.65272084E-09
  1 713 9.18921483E-09
  1 714 9.70036179E-09
  1 715 1.00791923E-08
  1 716 1.15180576E-08
  1 717 1.11830966E-08
  1 718 8.98028173E-09
  1 719 7.56837886E-09
  1 720 7.47552453E-09
  1 721 7.13971359E-09
  1 722 7.25460470E-09
  1 723 8.17650082E-09
  1 724 9.99129854E-09
  1 725 1.09729271E-08
  1 726 1.00316968E-08
  1 727 8.40336847E-09
  1 728 8.08249551E-09
  1 729 7.99858179E-09
  1 730 7.28505527E-09
  1 731 7.01092427E-09
  1 732 6.74571790E-09
  1 733 6.81898699E-09
  1 734 7.07360177E-09
  1 735 7.53922753E-09
  1 736 7.75834112E-09
  1 737 7.91991636E-09
  1 738 7.62304869E-09
  1 739 6.57579160E-09
  1 740 6.59193227E-09
  1 741 6.67863601E-09
  1 742 6.98364085E-09
  1 743 7.71908953E-09
  1 744 7.66068632E-09
  1 745 7.68684296E-09
  1 746 7.68389747E-09
  1 747 8.23822436E-09
  1 748 8.74880967E-09
  1 749 9.22095892E-09
  1 750 1.03520157E-08
  1 751 1.07681116E-08
  1 752 1.18502162E-08
  1 753 1.22351136E-08
  1 754 1.12420417E-08
  1 755 1.11521447E-08
  1 756 1.19779857E-08
  1 757 1.03766756E-08
  1 758 8.44596944E-09
  1 759 8.26049051E-09
  1 760 8.05864820E-09
  1 761 7.58666063E-09
  1 762 6.83630126E-09
  1 763 7.04151450E-09
  1 764 6.56246277E-09
  1 765 5.76057062E-09
  1 766 5.03849713E-09
  1 767 4.78038658E-09
  1 768 4.59739099E-09
  1 769 3.99280107E-09
  1 770 3.75405198E-09
  1 771 3.88527670E-09
  1 772 4.59025448E-09
  1 773 5.56178312E-09
  1 774 5.64993871E-09
  1 775 5.74555654E-09
  1 776 6.47648869E-09
  1 777 7.68094276E-09
  1 778 7.77487101E-09
  1 779 7.25409254E-09
  1 780 5.85406110E-09
  1 781 5.22645884E-09
  1 782 5.17625638E-09
  1 783 5.44315082E-09
  1 784 5.81654612E-09
  1 785 7.03824039E-09
  1 786 8.78015806E-09
  1 787 9.67696987E-09
  1 788 1.08949153E-08
  1 789 1.25417577E-08
  1 790 1.29144897E-08
  1 791 1.23890866E-08
  1 792 1.16918959E-08
  1 793 1.18113577E-08
  1 794 1.13195077E-08
  1 795 1.01392937E-08
  1 796 9.14667462E-09
  1 797 8.36952827E-09
  1 798 8.68995782E-09
  1 799 9.08080378E-09
  1 800 8.68842138E-09
  1 801 6.86003733E-09
  1 802 6.38977124E-09
  1 803 6.88026502E-09
  1 804 7.35390330E-09
  1 805 7.59429287E-09
  1 806 8.45491093E-09
  1 807 9.05870194E-09
  1 808 9.08618957E-09
  1 809 8.57897797E-09
  1 810 7.37413076E-09
  1 811 6.62561758E-09
  1 812 7.11576920E-09
  1 813 8.32129390E-09
  1 814 9.69498000E-09
  1 815 9.81511949E-09
  1 816 1.10749808E-08
  1 817 1.15276535E-08
  1 818 9.80150241E-09
  1 819 8.01800847E-09
  1 820 7.62091286E-09
  1 821 7.25457201E-09
  1 822 7.18545461E-09
  1 823 7.74477649E-09
  1 824 9.20545804E-09
  1 825 1.09093106E-08
  1 826 1.04183254E-08
  1 827 8.92359466E-09
  1 828 8.08724497E-09
  1 829 7.95020562E-09
  1 830 7.47972149E-09
  1 831 7.22120013E-09
  1 832 6.88680878E-09
  1 833 6.94284778E-09
  1 834 7.11549952E-09
  1 835 7.37476219E-09
  1 836 7.90517493E-09
  1 837 7.88580359E-09
  1 838 7.89408980E-09
  1 839 7.02176158E-09
  1 840 6.71083671E-09
  1 841 6.78849566E-09
  1 842 7.00834004E-09
  1 843 7.44133344E-09
  1 844 7.88565506E-09
  1 845 7.69500436E-09
  1 846 7.73018151E-09
  1 847 7.84867134E-09
  1 848 8.79501179E-09
  1 849 8.91042000E-09
  1 850 9.82960294E-09
  1 851 1.04298834E-08
  1 852 1.14279737E-08
  1 853 1.22570474E-08
  1 854 1.17077402E-08
  1 855 1.11803534E-08
  1 856 1.16950699E-08
  1 857 1.12002903E-08
  1 858 8.97028071E-09
  1 859 8.03900736E-09
  1 860 8.18900066E-09
  1 861 7.60559070E-09
  1 862 7.03056014E-09
  1 863 6.93569220E-09
  1 864 6.83369995E-09
  1 865 5.98752927E-09
  1 866 5.21178252E-09
  1 867 4.87415302E-09
  1 868 4.70702097E-09
  1 869 4.22719029E-09
  1 870 3.81865920E-09
  1 871 3.79243374E-09
  1 872 4.38637281E-09
  1 873 5.15804353E-09
  1 874 5.62878166E-09
  1 875 5.66210105E-09
  1 876 6.00857035E-09
  1 877 7.16998977E-09
  1 878 7.91235278E-09
  1 879 7.41365161E-09
  1 880 6.35971169E-09
  1 881 5.33488373E-09
  1 882 5.03931713E-09
  1 883 5.36307482E-09
  1 884 5.56749216E-09
  1 885 6.38859005E-09
  1 886 7.78819128E-09
  1 887 9.17543115E-09
  1 888 9.90513973E-09
  1 889 1.16697013E-08
  1 890 1.24747220E-08
  1 891 1.22221483E-08
  1 892 1.13642595E-08
  1 893 1.12083594E-08
  1 894 1.10267658E-08
  1 895 1.02522023E-08
  1 896 9.15313407E-09
  1 897 8.22232812E-09
  1 898 8.08230088E-09
  1 899 8.50540660E-09
  1 900 8.70001267E-09
  1 901 7.45400661E-09
  1 902 6.60525500E-09
  1 903 6.75022444E-09
  1 904 7.29770737E-09
  1 905 7.34954267E-09
  1 906 8.18769699E-09
  1 907 8.83783711E-09
  1 908 8.96568721E-09
  1 909 8.60460201E-09
  1 910 7.58568080E-09
  1 911 6.65675169E-09
  1 912 6.50357445E-09
  1 913 7.62845248E-09
  1 914 9.22106501E-09
  1 915 9.48954933E-09
  1 916 1.01412790E-08
  1 917 1.14192762E-08
  1 918 1.06751384E-08
  1 919 8.53215814E-09
  1 920 7.57876158E-09
  1 921 7.28343184E-09
  1 922 7.08281404E-09
  1 923 7.37550806E-09
  1 924 8.44302180E-09
  1 925 1.04505769E-08
  1 926 1.05722532E-08
  1 927 9.43277941E-09
  1 928 8.05474722E-09
  1 929 7.77246294E-09
  1 930 7.66419476E-09
  1 931 7.26200543E-09
  1 932 6.97305578E-09
  1 933 6.77823687E-09
  1 934 6.87839855E-09
  1 935 7.01479998E-09
  1 936 7.53859579E-09
  1 937 7.51718269E-09
  1 938 7.68521199E-09
  1 939 7.43789830E-09
  1 940 6.67793216E-09
  1 941 6.68066543E-09
  1 942 6.80275408E-09
  1 943 7.10635219E-09
  1 944 7.79457730E-09
  1 945 7.42839402E-09
  1 946 7.51962722E-09
  1 947 7.46141698E-09
  1 948 8.37907074E-09
  1 949 8.69813802E-09
  1 950 9.00569504E-09
  1 951 9.90957734E-09
  1 952 1.06368323E-08
  1 953 1.17310580E-08
  1 954 1.20772433E-08
  1 955 1.10080151E-08
  1 956 1.13844392E-08
  1 957 1.15003399E-08
  1 958 9.63447206E-09
  1 959 8.00911465E-09
  1 960 7.87627337E-09
  1 961 7.64052835E-09
  1 962 7.19132371E-09
  1 963 6.64402063E-09
  1 964 6.91567395E-09
  1 965 6.20611461E-09
  1 966 5.32597550E-09
  1 967 4.85286972E-09
  1 968 4.68516329E-09
  1 969 4.39403330E-09
  1 970 3.77372715E-09
  1 971 3.72996250E-09
  1 972 4.04956711E-09
  1 973 4.81079392E-09
  1 974 5.60662555E-09
  1 975 5.64624892E-09
  1 976 5.75895022E-09
  1 977 6.63071117E-09
  1 978 7.76781842E-09
  1 979 7.67916089E-09
  1 980 7.10465015E-09
  1 981 5.60493521E-09
  1 982 5.10074317E-09
  1 983 5.29353848E-09
  1 984 5.49091161E-09
  1 985 6.06644411E-09
  1 986 7.17741172E-09
  1 987 8.80924258E-09
  1 988 9.50499352E-09
  1 989 1.09001248E-08
  1 990 1.23935487E-08
  1 991 1.24848969E-08
  1 992 1.15917758E-08
  1 993 1.11968064E-08
  1 994 1.13091063E-08
  1 995 1.06818400E-08
  1 996 9.61604023E-09
  1 997 8.40533797E-09
  1 998 7.92405604E-09
  1 999 8.25123652E-09
  1 1000 8.59687477E-09
  1 1001 7.89857004E-09
  1 1002 7.09686701E-09
  1 1003 6.63432241E-09
  1 1004 7.13958302E-09
  1 1005 7.37308405E-09
  1 1006 7.84045652E-09
  1 1007 8.54535735E-09
  1 1008 8.77580238E-09
  1 1009 8.96075036E-09
  1 1010 8.04762457E-09
  1 1011 6.80536342E-09
  1 1012 6.38750891E-09
  1 1013 7.12800441E-09
  1 1014 8.51969063E-09
  1 1015 9.39633557E-09
  1 1016 9.65550284E-09
  1 1017 1.12484989E-08
  1 1018 1.12964479E-08
  1 1019 9.14608919E-09
  1 1020 7.78036524E-09
  1 1021 7.42544877E-09
  1 1022 7.06858812E-09
  1 1023 7.19246455E-09
  1 1024 7.77050969E-09
  1 1025 9.64811333E-09
  1 1026 1.03957896E-08
  1 1027 9.75790249E-09
  1 1028 8.26084378E-09
  1 1029 7.79594667E-09
  1 1030 7.56753538E-09
  1 1031 7.12081079E-09
  1 1032 7.05399556E-09
  1 1033 6.76772544E-09
  1 1034 6.75994199E-09
  1 1035 6.93385996E-09
  1 1036 7.21592470E-09
  1 1037 7.53870846E-09
  1 1038 7.51824969E-09
  1 1039 7.58453628E-09
  1 1040 6.73488339E-09
  1 1041 6.76322894E-09
  1 1042 6.87158822E-09
  1 1043 7.03211209E-09
  1 1044 7.68523305E-09
  1 1045 7.40020918E-09
  1 1046 7.56218670E-09
  1 1047 7.53657943E-09
  1 1048 7.97875578E-09
  1 1049 8.64081095E-09
  1 1050 8.67345045E-09
  1 1051 9.46606283E-09
  1 1052 1.01224778E-08
  1 1053 1.12520310E-08
  1 1054 1.20898894E-08
  1 1055 1.12653692E-08
  1 1056 1.12404906E-08
  1 1057 1.15911602E-08
  1 1058 1.05474131E-08
  1 1059 8.35056397E-09
  1 1060 7.69663550E-09
  1 1061 7.80875770E-09
  1 1062 7.33822311E-09
  1 1063 6.68371084E-09
  1 1064 6.88400627E-09
  1 1065 6.53880519E-09
  1 1066 5.55767166E-09
  1 1067 4.87694963E-09
  1 1068 4.73538626E-09
  1 1069 4.63804102E-09
  1 1070 3.96555633E-09
  1 1071 3.77289903E-09
  1 1072 3.95592049E-09
  1 1073 4.63612669E-09
  1 1074 5.46095232E-09
  1 1075 5.69198959E-09
  1 1076 5.73404091E-09
  1 1077 6.33915834E-09
  1 1078 7.53822702E-09
  1 1079 8.00393640E-09
  1 1080 7.66278302E-09
  1 1081 6.15695147E-09
  1 1082 5.41060625E-09
  1 1083 5.21575743E-09
  1 1084 5.61578970E-09
  1 1085 5.93195726E-09
  1 1086 6.75841226E-09
  1 1087 8.08530347E-09
  1 1088 9.21588658E-09
  1 1089 1.00185116E-08
  1 1090 1.18741923E-08
  1 1091 1.22789487E-08
  1 1092 1.13763247E-08
  1 1093 1.09598098E-08
  1 1094 1.09182643E-08
  1 1095 1.05989132E-08
  1 1096 9.80183881E-09
  1 1097 8.58033538E-09
  1 1098 7.64400406E-09
  1 1099 7.73625140E-09
  1 1100 8.14370727E-09
  1 1101 8.13464631E-09
  1 1102 7.65459073E-09
  1 1103 6.79927816E-09
  1 1104 7.03838074E-09
  1 1105 7.39351798E-09
  1 1106 7.47650519E-09
  1 1107 8.39786421E-09
  1 1108 8.69354540E-09
  1 1109 9.03262281E-09
  1 1110 8.49068753E-09
  1 1111 7.11768911E-09
  1 1112 6.51859447E-09
  1 1113 6.63367281E-09
  1 1114 7.81120167E-09
  1 1115 9.24564812E-09
  1 1116 9.42597821E-09
  1 1117 1.04120298E-08
  1 1118 1.13839205E-08
  1 1119 1.00357423E-08
  1 1120 8.21823404E-09
  1 1121 7.64149594E-09
  1 1122 7.29259728E-09
  1 1123 7.02104532E-09
  1 1124 7.43120584E-09
  1 1125 8.88534789E-09
  1 1126 1.03782495E-08
  1 1127 9.97686121E-09
  1 1128 8.84315828E-09
  1 1129 7.90391828E-09
  1 1130 7.52766439E-09
  1 1131 7.29742978E-09
  1 1132 7.14337207E-09
  1 1133 6.90952045E-09
  1 1134 6.75024601E-09
  1 1135 6.85955783E-09
  1 1136 6.99190831E-09
  1 1137 7.41903054E-09
  1 1138 7.21665072E-09
  1 1139 7.49061931E-09
  1 1140 7.11897965E-09
  1 1141 6.79557283E-09
  1 1142 6.93595995E-09
  1 1143 6.95788853E-09
  1 1144 7.38127143E-09
  1 1145 7.58864895E-09
  1 1146 7.43586237E-09
  1 1147 7.63197227E-09
  1 1148 7.64717243E-09
  1 1149 8.57586651E-09
  1 1150 8.68354257E-09
  1 1151 8.94515940E-09
  1 1152 9.76076006E-09
  1 1153 1.08370533E-08
  1 1154 1.19600932E-08
  1 1155 1.19022067E-08
  1 1156 1.10514572E-08
  1 1157 1.17108419E-08
  1 1158 1.12523422E-08
  1 1159 8.98191808E-09
  1 1160 7.73887197E-09
  1 1161 7.61504596E-09
  1 1162 7.36829187E-09
  1 1163 6.80869731E-09
  1 1164 6.55048661E-09
  1 1165 6.63712536E-09
  1 1166 5.78325085E-09
  1 1167 4.90502673E-09
  1 1168 4.68897659E-09
  1 1169 4.66486135E-09
  1 1170 4.11744621E-09
  1 1171 3.64766876E-09
  1 1172 3.80284062E-09
  1 1173 4.28314169E-09
  1 1174 5.06548027E-09
  1 1175 5.58842205E-09
  1 1176 5.64347155E-09
  1 1177 6.02364366E-09
  1 1178 7.03820568E-09
  1 1179 8.02568774E-09
  1 1180 7.85981081E-09
  1 1181 6.93568845E-09
  1 1182 5.68766200E-09
  1 1183 5.26750261E-09
  1 1184 5.61321315E-09
  1 1185 5.90089458E-09
  1 1186 6.53839861E-09
  1 1187 7.61449066E-09
  1 1188 9.04275840E-09
  1 1189 9.72641503E-09
  1 1190 1.12212504E-08
  1 1191 1.25796874E-08
  1 1192 1.19637597E-08
  1 1193 1.13612786E-08
  1 1194 1.09843037E-08
  1 1195 1.09406023E-08
  1 1196 1.02898056E-08
  1 1197 9.30601711E-09
  1 1198 7.94308725E-09
  1 1199 7.52692018E-09
  1 1200 7.92361303E-09
  1 1201 8.15559633E-09
  1 1202 7.91051995E-09
  1 1203 7.13813912E-09
  1 1204 6.91312544E-09
  1 1205 7.11064072E-09
  1 1206 7.13914080E-09
  1 1207 7.94063952E-09
  1 1208 8.51264531E-09
  1 1209 8.66965092E-09
  1 1210 8.66094094E-09
  1 1211 7.63770805E-09
  1 1212 6.47237185E-09
  1 1213 6.28319919E-09
  1 1214 7.27131033E-09
  1 1215 8.62349202E-09
  1 1216 9.04040825E-09
  1 1217 9.66970869E-09
  1 1218 1.11503616E-08
  1 1219 1.08184237E-08
  1 1220 8.67031984E-09
  1 1221 7.75974523E-09
  1 1222 7.27655099E-09
  1 1223 6.91701011E-09
  1 1224 7.15244875E-09
  1 1225 8.07292878E-09
  1 1226 1.00356673E-08
  1 1227 9.81589717E-09
  1 1228 9.37461591E-09
  1 1229 7.87940974E-09
  1 1230 7.57250550E-09
  1 1231 7.29127436E-09
  1 1232 7.04296587E-09
  1 1233 7.00517728E-09
  1 1234 6.81174641E-09
  1 1235 6.64251860E-09
  1 1236 6.85688260E-09
  1 1237 7.10997818E-09
  1 1238 7.15336432E-09
  1 1239 7.24852907E-09
  1 1240 7.25102125E-09
  1 1241 6.67457922E-09
  1 1242 6.86145948E-09
  1 1243 6.91176779E-09
  1 1244 7.10840616E-09
  1 1245 7.62486905E-09
  1 1246 7.19701987E-09
  1 1247 7.42654726E-09
  1 1248 7.43623131E-09
  1 1249 8.00853326E-09
  1 1250 8.53045529E-09
  1 1251 8.55395764E-09
  1 1252 9.10008222E-09
  1 1253 9.96468379E-09
  1 1254 1.11911985E-08
  1 1255 1.19646813E-08
  1 1256 1.07431799E-08
  1 1257 1.10308465E-08
  1 1258 1.12297101E-08
  1 1259 9.70531661E-09
  1 1260 7.85504527E-09
  1 1261 7.34523282E-09
  1 1262 7.50234843E-09
  1 1263 7.00839555E-09
  1 1264 6.37348761E-09
  1 1265 6.71807700E-09
  1 1266 6.08611555E-09
  1 1267 5.12268457E-09
  1 1268 4.65111340E-09
  1 1269 4.76691371E-09
  1 1270 4.39653978E-09
  1 1271 3.78418136E-09
  1 1272 3.80606929E-09
  1 1273 4.16835168E-09
  1 1274 4.93071315E-09
  1 1275 5.65181953E-09
  1 1276 5.82498085E-09
  1 1277 5.98583929E-09
  1 1278 6.77536470E-09
  1 1279 7.87267657E-09
  1 1280 8.11191284E-09
  1 1281 7.54112274E-09
  1 1282 6.07673032E-09
  1 1283 5.41923360E-09
  1 1284 5.48513620E-09
  1 1285 5.92588632E-09
  1 1286 6.32049373E-09
  1 1287 7.20417637E-09
  1 1288 8.61191685E-09
  1 1289 9.30087374E-09