# File generated by Flopy version 3.6.0 on 09/16/2024 at 10:50:54.
BEGIN options
  SAVE_FLOWS
END options

BEGIN packages
  DISV6  Reference.disv  disv
  OC6  Reference.oc  oc
  STO6  Reference.sto  sto
  NPF6  Reference.npf  npf
  IC6  Reference.ic  ic
  RCH6  Reference.rch  rch_0
  WEL6  Reference.wel  wel_0
  RIV6  Reference.riv  riv_0
  CHD6  Reference.chd  chd_0
END packages

