# File generated by Flopy version 3.5.0 on 03/06/2024 at 10:48:00.
BEGIN options
END options

BEGIN griddata
  icelltype
    CONSTANT  0
  k
    INTERNAL  FACTOR  1.0
    1.05664979E-05  1.77456836E-05  1.76799834E-05  1.60780961E-05  1.68412047E-05  1.56027501E-05  1.33940137E-05  1.44799755E-05  1.57729351E-05  1.70693952E-05  2.00562163E-05  2.36541819E-05  2.18925559E-05  1.72003509E-05  1.74791989E-05  1.70470769E-05  1.53285667E-05  1.54586348E-05  1.48449692E-05  1.25813276E-05
    1.03360812E-05  1.02400410E-05  9.80629444E-06  8.80007237E-06  8.49469103E-06  7.72984124E-06  7.85332054E-06  7.77819795E-06  7.22947600E-06  7.27170267E-06  6.75096378E-06  6.18833358E-06  5.47659792E-06  5.38074071E-06  6.10719098E-06  6.28461353E-06  7.39404904E-06  7.79376266E-06  7.08566460E-06  6.44111999E-06
    6.55603655E-06  8.38445775E-06  8.84868007E-06  9.64527084E-06  1.17130651E-05  1.29507306E-05  1.44370357E-05  1.44573018E-05  1.67825030E-05  1.47719286E-05  1.21210406E-05  1.32628817E-05  1.44663827E-05  1.83742538E-05  2.01814474E-05  2.03789348E-05  1.75311285E-05  1.35523972E-05  1.47096686E-05  1.47345925E-05
    1.30638030E-05  1.14148874E-05  1.10261214E-05  1.23161907E-05  1.28773495E-05  1.35362677E-05  1.45250216E-05  1.51694461E-05  1.47612137E-05  1.30083306E-05  1.28693176E-05  1.44328099E-05  1.58196092E-05  1.43096799E-05  1.04848749E-05  8.25406007E-06  7.31700945E-06  7.39116424E-06  6.91375479E-06  5.87286095E-06
    6.09731464E-06  5.52088633E-06  4.45470014E-06  3.72244302E-06  3.66437844E-06  3.84571623E-06  3.48237139E-06  4.19572517E-06  5.36499300E-06  6.11623622E-06  7.85645822E-06  9.43261429E-06  1.08596094E-05  8.74899927E-06  9.41680832E-06  1.31864608E-05  1.32491080E-05  1.41055359E-05  1.48884640E-05  1.61798590E-05
    1.33127679E-05  1.60823790E-05  1.71792459E-05  1.56068235E-05  1.70707702E-05  1.61980050E-05  1.38154398E-05  1.42612592E-05  1.52953411E-05  1.62996479E-05  1.83423409E-05  2.28438430E-05  2.34110238E-05  1.86570893E-05  1.85096911E-05  1.82510177E-05  1.62300130E-05  1.58354431E-05  1.57597925E-05  1.37805686E-05
    1.11842032E-05  1.08559405E-05  1.05204382E-05  9.42853173E-06  8.90115007E-06  7.86864621E-06  7.92947258E-06  7.97781462E-06  7.70555712E-06  7.81419869E-06  7.48863120E-06  7.09206832E-06  6.00090552E-06  5.61292745E-06  5.97440672E-06  6.11745116E-06  7.29334772E-06  8.14833159E-06  8.00924363E-06  6.82616977E-06
    6.37517838E-06  7.61280765E-06  8.09100859E-06  9.07503601E-06  1.08330118E-05  1.28945243E-05  1.49275544E-05  1.48754520E-05  1.80003005E-05  1.59151977E-05  1.29147172E-05  1.27937375E-05  1.30940810E-05  1.67609607E-05  1.92260037E-05  2.20727960E-05  1.95492411E-05  1.42969165E-05  1.45189230E-05  1.49085794E-05
    1.42520444E-05  1.23672845E-05  1.14749566E-05  1.22891226E-05  1.25434313E-05  1.30904390E-05  1.42002196E-05  1.60718519E-05  1.69851117E-05  1.52433805E-05  1.41547514E-05  1.48838918E-05  1.65461453E-05  1.56215016E-05  1.16958798E-05  8.87485940E-06  7.37975293E-06  7.50611161E-06  7.21385954E-06  6.24751214E-06
    6.44408919E-06  5.99012726E-06  4.93753892E-06  3.73517977E-06  3.49489421E-06  3.71318948E-06  3.30788887E-06  3.79177595E-06  4.54264080E-06  5.19407466E-06  6.21435037E-06  7.72866459E-06  1.01544563E-05  8.43910047E-06  8.90285021E-06  1.22437605E-05  1.35681568E-05  1.42171959E-05  1.38916848E-05  1.61386092E-05
    1.18349495E-05  1.45421631E-05  1.62298605E-05  1.47032805E-05  1.64606911E-05  1.62560502E-05  1.41859796E-05  1.40921149E-05  1.48995647E-05  1.56764146E-05  1.65540159E-05  2.07459367E-05  2.29930014E-05  1.93506332E-05  1.89619429E-05  1.90810061E-05  1.71170580E-05  1.59135379E-05  1.61144282E-05  1.45320145E-05
    1.17782256E-05  1.11396800E-05  1.08960656E-05  1.00471297E-05  9.41574586E-06  8.09994838E-06  7.90578437E-06  7.86316811E-06  7.83690544E-06  7.94191089E-06  7.89417028E-06  7.97914713E-06  6.68202495E-06  6.07625530E-06  6.02879596E-06  5.95803760E-06  6.82244894E-06  7.85452738E-06  8.63472728E-06  7.35430598E-06
    6.52776799E-06  7.20905037E-06  7.44189052E-06  8.33602218E-06  9.56582483E-06  1.20694828E-05  1.47019515E-05  1.52902520E-05  1.95502823E-05  1.77915461E-05  1.45168315E-05  1.28559457E-05  1.20665002E-05  1.45037378E-05  1.68435461E-05  2.24297109E-05  2.19982230E-05  1.62450588E-05  1.48783270E-05  1.47825075E-05
    1.50059928E-05  1.30968941E-05  1.19945209E-05  1.24327614E-05  1.25066120E-05  1.29558927E-05  1.37088855E-05  1.61475836E-05  1.85527617E-05  1.76700443E-05  1.57212396E-05  1.53433462E-05  1.71541210E-05  1.71589093E-05  1.33683798E-05  9.76699978E-06  7.52152916E-06  7.35277246E-06  7.08058082E-06  6.39453121E-06
    6.70625942E-06  6.59010999E-06  5.70533112E-06  4.03506346E-06  3.40313613E-06  3.49237884E-06  3.14388984E-06  3.48411656E-06  4.02877480E-06  4.70812472E-06  5.17614685E-06  6.32708718E-06  8.95621748E-06  7.83716186E-06  8.10632448E-06  1.07287788E-05  1.36201227E-05  1.50182120E-05  1.40589668E-05  1.66872626E-05
    1.10426348E-05  1.35547280E-05  1.55827831E-05  1.41158000E-05  1.56666989E-05  1.59234740E-05  1.44592432E-05  1.39632239E-05  1.47292934E-05  1.55861864E-05  1.54940398E-05  1.89507096E-05  2.19258096E-05  1.96158673E-05  1.90746392E-05  1.96640753E-05  1.82865492E-05  1.62778789E-05  1.64105280E-05  1.53483307E-05
    1.25362197E-05  1.14620325E-05  1.10574252E-05  1.05401719E-05  1.00035964E-05  8.56157311E-06  8.07590644E-06  7.80759676E-06  7.89925867E-06  7.83848386E-06  7.87083124E-06  8.43481320E-06  7.32653849E-06  6.72894977E-06  6.36362785E-06  6.06643212E-06  6.45929802E-06  7.23971972E-06  8.56880872E-06  7.60194015E-06
    6.75257373E-06  7.08012896E-06  7.08541945E-06  7.81423444E-06  8.52598288E-06  1.09128593E-05  1.35227798E-05  1.48407208E-05  2.00975011E-05  1.97476952E-05  1.72183044E-05  1.39924429E-05  1.21141212E-05  1.28462959E-05  1.39498582E-05  2.02702222E-05  2.27961717E-05  1.89442190E-05  1.62807668E-05  1.50187432E-05
    1.56367715E-05  1.37277934E-05  1.23968621E-05  1.24020879E-05  1.24587951E-05  1.30559657E-05  1.34563462E-05  1.58861474E-05  1.91388518E-05  1.98661741E-05  1.75663084E-05  1.57986875E-05  1.72799376E-05  1.84425713E-05  1.55286419E-05  1.11844571E-05  7.99630889E-06  7.31546308E-06  6.74359219E-06  6.18648060E-06
    6.52231675E-06  6.99402590E-06  6.63919176E-06  4.65127271E-06  3.54645747E-06  3.34428487E-06  3.00832488E-06  3.17128699E-06  3.55051003E-06  4.32607280E-06  4.50705655E-06  5.37897146E-06  7.89774965E-06  7.39026800E-06  7.38413626E-06  8.88124859E-06  1.24673428E-05  1.50625539E-05  1.46404763E-05  1.81615754E-05
    1.04580566E-05  1.27941536E-05  1.52064786E-05  1.40882600E-05  1.54040514E-05  1.59142142E-05  1.49907645E-05  1.39529845E-05  1.47236507E-05  1.58566617E-05  1.52588476E-05  1.81331841E-05  2.15354771E-05  2.04620250E-05  1.95835031E-05  2.04303059E-05  1.98631128E-05  1.73439698E-05  1.72187264E-05  1.66776704E-05
    1.39464501E-05  1.24143459E-05  1.15397145E-05  1.10949132E-05  1.06226751E-05  9.27190445E-06  8.47641597E-06  7.96724249E-06  8.17456404E-06  7.88248119E-06  7.78404987E-06  8.41164388E-06  7.66941939E-06  7.31692178E-06  6.83339368E-06  6.47833622E-06  6.45196411E-06  6.83189227E-06  8.20991147E-06  7.47857841E-06
    6.78899631E-06  6.90388191E-06  6.87332772E-06  7.49114854E-06  7.90969291E-06  1.01178425E-05  1.22942260E-05  1.38493139E-05  1.89507108E-05  2.02355848E-05  1.99023783E-05  1.60011850E-05  1.35769378E-05  1.26977184E-05  1.21313041E-05  1.71824631E-05  2.10034423E-05  2.06717293E-05  1.81172380E-05  1.60063663E-05
    1.65165900E-05  1.45487204E-05  1.29834892E-05  1.22992578E-05  1.22445894E-05  1.30588232E-05  1.33907232E-05  1.57256568E-05  1.89634170E-05  2.13276167E-05  1.96226217E-05  1.65161007E-05  1.69828379E-05  1.88888159E-05  1.76508954E-05  1.30971635E-05  8.93438875E-06  7.68797816E-06  6.68052621E-06  5.96750596E-06
    5.98876071E-06  6.89048161E-06  7.40592676E-06  5.49218281E-06  3.95145725E-06  3.39229035E-06  3.02201001E-06  2.97020038E-06  3.13367332E-06  3.88880853E-06  3.91913606E-06  4.59807512E-06  6.91661784E-06  7.27000036E-06  7.20076013E-06  7.58072846E-06  1.07450503E-05  1.36250876E-05  1.42751693E-05  1.91765615E-05
    1.00097385E-05  1.19271366E-05  1.45841879E-05  1.42427069E-05  1.55498853E-05  1.65774899E-05  1.63866579E-05  1.44295944E-05  1.49646349E-05  1.62023070E-05  1.54317899E-05  1.79080290E-05  2.18253560E-05  2.23991660E-05  2.11921814E-05  2.19842234E-05  2.19927608E-05  1.91387148E-05  1.87394304E-05  1.86559209E-05
    1.61343885E-05  1.42934007E-05  1.28128400E-05  1.21417323E-05  1.14739336E-05  1.02791308E-05  9.07236448E-06  8.22017161E-06  8.59744965E-06  8.19172426E-06  7.98927239E-06  8.36382884E-06  7.78616821E-06  7.62302810E-06  7.15579993E-06  6.96891299E-06  6.69377420E-06  6.77323659E-06  8.04824494E-06  7.38591102E-06
    6.73823523E-06  6.56815564E-06  6.60401361E-06  7.12364455E-06  7.44754964E-06  9.69018181E-06  1.16218833E-05  1.32935988E-05  1.73875241E-05  1.92090489E-05  2.08324747E-05  1.75084227E-05  1.59002144E-05  1.40284321E-05  1.19575746E-05  1.52823023E-05  1.85336807E-05  2.06382896E-05  1.90055288E-05  1.72860174E-05
    1.77069099E-05  1.55170536E-05  1.39619095E-05  1.25357362E-05  1.21298952E-05  1.28793552E-05  1.33067154E-05  1.55910574E-05  1.84372645E-05  2.17940868E-05  2.14894100E-05  1.76966902E-05  1.67179810E-05  1.84650572E-05  1.90217641E-05  1.50273810E-05  1.02167924E-05  8.43357757E-06  7.08145500E-06  6.12470760E-06
    5.59186607E-06  6.43013188E-06  7.66707413E-06  6.34647886E-06  4.54770822E-06  3.60653704E-06  3.22230490E-06  2.98810833E-06  2.92949101E-06  3.54310811E-06  3.41353635E-06  3.84272976E-06  5.69455137E-06  7.05154399E-06  7.49941834E-06  7.16959076E-06  9.67639438E-06  1.18707647E-05  1.28400789E-05  1.80480321E-05
    9.98124654E-06  1.11738123E-05  1.36078587E-05  1.40909564E-05  1.53557654E-05  1.72859201E-05  1.87741430E-05  1.57771258E-05  1.56769032E-05  1.67200771E-05  1.57220652E-05  1.75918788E-05  2.18068606E-05  2.46340457E-05  2.37544647E-05  2.44645873E-05  2.48842894E-05  2.15680067E-05  2.07523239E-05  2.10093226E-05
    1.88211566E-05  1.68198950E-05  1.48702672E-05  1.38845569E-05  1.28242672E-05  1.17319565E-05  1.00500601E-05  8.56616196E-06  8.85528225E-06  8.52104453E-06  8.45017218E-06  8.59196277E-06  8.00747855E-06  7.79483268E-06  7.27870132E-06  7.26696073E-06  6.88424716E-06  6.86427182E-06  8.07500068E-06  7.58237114E-06
    6.90793275E-06  6.32606638E-06  6.33882543E-06  6.64316984E-06  6.87297919E-06  9.13257911E-06  1.11520932E-05  1.33728009E-05  1.66933829E-05  1.83978918E-05  2.03901443E-05  1.75016104E-05  1.75769654E-05  1.58317742E-05  1.30290694E-05  1.50145609E-05  1.72878681E-05  2.02903795E-05  1.88585588E-05  1.80589684E-05
    1.87272945E-05  1.63291103E-05  1.50273659E-05  1.31686303E-05  1.24423163E-05  1.27952564E-05  1.32668828E-05  1.53654878E-05  1.77477453E-05  2.13848258E-05  2.25524077E-05  1.91817222E-05  1.68771404E-05  1.76317831E-05  1.93789026E-05  1.65389462E-05  1.15397228E-05  9.23073863E-06  7.76993487E-06  6.73894028E-06
    5.62371729E-06  6.06418573E-06  7.49053090E-06  6.98495947E-06  5.23305048E-06  3.89391565E-06  3.50761303E-06  3.18182310E-06  2.97800111E-06  3.46206479E-06  3.16571222E-06  3.28388825E-06  4.41214306E-06  6.23714126E-06  7.62050448E-06  7.30302096E-06  9.58206193E-06  1.10445119E-05  1.16416221E-05  1.55096358E-05
    1.05098719E-05  1.08921934E-05  1.27651480E-05  1.37426506E-05  1.45077784E-05  1.69534944E-05  2.10079042E-05  1.79566792E-05  1.70075706E-05  1.75158565E-05  1.61731959E-05  1.70216850E-05  2.07605840E-05  2.54575397E-05  2.59174492E-05  2.70118220E-05  2.80997329E-05  2.43739783E-05  2.28247364E-05  2.30818049E-05
    2.14158249E-05  1.92531538E-05  1.71042148E-05  1.59197072E-05  1.45362494E-05  1.35941319E-05  1.15708112E-05  9.29488507E-06  8.95657207E-06  8.57422002E-06  8.76401665E-06  8.89169554E-06  8.43683724E-06  8.06272922E-06  7.38917888E-06  7.40843684E-06  6.88144378E-06  6.83556834E-06  7.96424850E-06  7.87749444E-06
    7.34617163E-06  6.39111545E-06  6.31051132E-06  6.28526013E-06  6.28453876E-06  8.22256095E-06  1.02312001E-05  1.32522051E-05  1.65365302E-05  1.87788377E-05  2.04700358E-05  1.69723862E-05  1.79333573E-05  1.67887309E-05  1.43241834E-05  1.54797031E-05  1.73149479E-05  2.09873978E-05  1.89762607E-05  1.85788573E-05
    1.92890256E-05  1.67713704E-05  1.56258100E-05  1.37118499E-05  1.30537658E-05  1.29913911E-05  1.34279119E-05  1.52833163E-05  1.71377444E-05  2.04834939E-05  2.24372255E-05  2.04096427E-05  1.74738604E-05  1.68685257E-05  1.89002669E-05  1.74967323E-05  1.27962201E-05  9.85150367E-06  8.39819169E-06  7.58233655E-06
    6.04655879E-06  6.03359014E-06  7.23059399E-06  7.34472852E-06  5.93548829E-06  4.24388139E-06  3.74864707E-06  3.38467867E-06  3.16062866E-06  3.61336546E-06  3.25510506E-06  3.09519247E-06  3.53236669E-06  5.10259059E-06  6.97824876E-06  7.27538286E-06  9.84974488E-06  1.11753452E-05  1.15307911E-05  1.35273343E-05
    1.13336371E-05  1.10741042E-05  1.24057481E-05  1.37760559E-05  1.36925253E-05  1.56279804E-05  2.13589917E-05  2.00558901E-05  1.89307907E-05  1.85893779E-05  1.69209106E-05  1.65281032E-05  1.90756479E-05  2.42332301E-05  2.61600699E-05  2.82464928E-05  3.04360790E-05  2.70027997E-05  2.46187654E-05  2.42555023E-05
    2.32925033E-05  2.10180577E-05  1.87698596E-05  1.74476704E-05  1.59875993E-05  1.54670195E-05  1.34241149E-05  1.05618138E-05  9.30177781E-06  8.48585824E-06  8.66098246E-06  8.81635338E-06  8.76893526E-06  8.37417300E-06  7.56152875E-06  7.56334208E-06  6.83547740E-06  6.67607304E-06  7.56125327E-06  7.91124207E-06
    7.73301042E-06  6.63880418E-06  6.58626940E-06  6.25569873E-06  5.96241202E-06  7.34370644E-06  8.94429240E-06  1.21392230E-05  1.55221063E-05  1.93912116E-05  2.16597071E-05  1.73098621E-05  1.80485415E-05  1.69359288E-05  1.50962758E-05  1.54852770E-05  1.74154060E-05  2.23064604E-05  1.99976555E-05  1.97061835E-05
    1.99885147E-05  1.71936972E-05  1.56494508E-05  1.36623141E-05  1.33564079E-05  1.31977325E-05  1.37065605E-05  1.54558765E-05  1.69118755E-05  1.96850341E-05  2.15273084E-05  2.08237655E-05  1.80651278E-05  1.63318807E-05  1.79547405E-05  1.77647907E-05  1.39970600E-05  1.04641623E-05  8.86854216E-06  8.34320551E-06
    6.65618059E-06  6.27604601E-06  7.08429205E-06  7.53771121E-06  6.58947695E-06  4.71915282E-06  3.97373456E-06  3.49082628E-06  3.28859274E-06  3.75148522E-06  3.56650288E-06  3.27695565E-06  3.17831411E-06  4.28491868E-06  5.94071483E-06  6.72243256E-06  9.57421120E-06  1.13832868E-05  1.22235140E-05  1.27135543E-05
    1.19376908E-05  1.12862865E-05  1.23385249E-05  1.45093088E-05  1.37344305E-05  1.45879823E-05  2.00734264E-05  2.09343922E-05  2.09124919E-05  1.99364126E-05  1.82316707E-05  1.65721451E-05  1.76580873E-05  2.22283723E-05  2.47444402E-05  2.77488840E-05  3.10606956E-05  2.89695289E-05  2.61862596E-05  2.46811241E-05
    2.43403208E-05  2.22108832E-05  1.98464002E-05  1.82211995E-05  1.67244734E-05  1.68131496E-05  1.52012459E-05  1.22342695E-05  1.01460701E-05  8.65576110E-06  8.43763948E-06  8.36796528E-06  8.64700977E-06  8.41717857E-06  7.67399007E-06  7.72250672E-06  6.87242331E-06  6.57135855E-06  7.10074836E-06  7.67235830E-06
    7.78813694E-06  6.74617661E-06  6.91472285E-06  6.48916577E-06  6.02195395E-06  6.89339950E-06  7.97548663E-06  1.05462539E-05  1.32393567E-05  1.83687631E-05  2.23659377E-05  1.85281716E-05  1.88793408E-05  1.73775903E-05  1.58319943E-05  1.49485039E-05  1.67043218E-05  2.26507937E-05  2.11069802E-05  2.13682922E-05
    2.13270808E-05  1.83851388E-05  1.57004113E-05  1.31714886E-05  1.29926089E-05  1.29185985E-05  1.37376212E-05  1.55463822E-05  1.70165939E-05  1.93833917E-05  2.06720542E-05  2.06437756E-05  1.82106028E-05  1.58378562E-05  1.67736304E-05  1.72794599E-05  1.49376224E-05  1.12174057E-05  9.40286545E-06  9.01000634E-06
    7.32339665E-06  6.64367465E-06  7.00274048E-06  7.65710053E-06  7.12750668E-06  5.31233384E-06  4.31602308E-06  3.59171452E-06  3.31931324E-06  3.66342767E-06  3.79922805E-06  3.65620671E-06  3.19123503E-06  3.96371973E-06  5.18789392E-06  6.03203113E-06  8.63378673E-06  1.08635010E-05  1.27386902E-05  1.24009461E-05
    1.21789813E-05  1.11430026E-05  1.19690946E-05  1.54327229E-05  1.47883110E-05  1.47981600E-05  1.90624827E-05  2.10008200E-05  2.23584310E-05  2.13138164E-05  2.02344517E-05  1.74965252E-05  1.71253654E-05  2.08733533E-05  2.33056744E-05  2.66738946E-05  3.05475389E-05  3.03573099E-05  2.77525328E-05  2.51024146E-05
    2.50951354E-05  2.33746127E-05  2.10588605E-05  1.89358809E-05  1.71597759E-05  1.75620199E-05  1.66416227E-05  1.40710963E-05  1.14435551E-05  9.30746670E-06  8.54229404E-06  8.03940764E-06  8.25887964E-06  8.07521772E-06  7.56224716E-06  7.72082181E-06  6.92993764E-06  6.59106389E-06  6.82690614E-06  7.49034255E-06
    7.69684508E-06  6.66420351E-06  6.95707583E-06  6.66126491E-06  6.31866617E-06  6.88523408E-06  7.68713827E-06  9.51985619E-06  1.09459407E-05  1.56668065E-05  2.06835005E-05  1.91866225E-05  1.98891420E-05  1.85061046E-05  1.74513527E-05  1.48489426E-05  1.57791736E-05  2.15754700E-05  2.12146526E-05  2.22990148E-05
    2.24680412E-05  2.06648474E-05  1.65148376E-05  1.28728972E-05  1.23776351E-05  1.21494789E-05  1.32540075E-05  1.50698487E-05  1.69284256E-05  1.94118801E-05  2.02716427E-05  2.06465783E-05  1.81747406E-05  1.53036179E-05  1.54134227E-05  1.61283809E-05  1.52933961E-05  1.19113963E-05  1.00963892E-05  9.79506104E-06
    8.13782292E-06  7.14409560E-06  6.97715072E-06  7.67828218E-06  7.48684923E-06  5.91965241E-06  4.81963093E-06  3.83259168E-06  3.39812556E-06  3.46435991E-06  3.76274835E-06  3.92569337E-06  3.33633965E-06  3.94869460E-06  4.87078627E-06  5.66157292E-06  7.70697965E-06  9.87587850E-06  1.25072589E-05  1.18277646E-05
    1.24281451E-05  1.09065292E-05  1.11424173E-05  1.54129005E-05  1.60383527E-05  1.61983379E-05  1.93524280E-05  2.17049971E-05  2.37913942E-05  2.27230133E-05  2.27668062E-05  1.92995958E-05  1.75896671E-05  2.05367253E-05  2.28316571E-05  2.63749252E-05  3.02591960E-05  3.19359304E-05  2.97366499E-05  2.60762727E-05
    2.59608692E-05  2.47861639E-05  2.30458089E-05  2.04664556E-05  1.81491851E-05  1.83840898E-05  1.79685241E-05  1.59177251E-05  1.29578096E-05  1.03828712E-05  9.12020489E-06  8.17814491E-06  8.10176102E-06  7.70018196E-06  7.30137771E-06  7.48470476E-06  6.87684521E-06  6.60097330E-06  6.69504553E-06  7.54757734E-06
    7.80028344E-06  6.70355610E-06  6.81107816E-06  6.55686133E-06  6.51443683E-06  6.98287806E-06  7.91039948E-06  9.42525158E-06  9.66706422E-06  1.31064135E-05  1.74188508E-05  1.81654773E-05  1.95797740E-05  1.93310648E-05  1.98818726E-05  1.58004560E-05  1.56829704E-05  2.04411314E-05  2.07843404E-05  2.19294932E-05
    2.19584239E-05  2.28102422E-05  1.81276174E-05  1.32352367E-05  1.21434500E-05  1.14174322E-05  1.24710265E-05  1.40771134E-05  1.61113841E-05  1.90365177E-05  1.99938254E-05  2.11386992E-05  1.85987341E-05  1.50604282E-05  1.41076901E-05  1.46041351E-05  1.48970835E-05  1.21959488E-05  1.06974377E-05  1.06712897E-05
    9.24082210E-06  7.91870751E-06  7.16196388E-06  7.68608082E-06  7.66262651E-06  6.41603737E-06  5.35721986E-06  4.23921357E-06  3.66303665E-06  3.40116925E-06  3.64284930E-06  3.96143568E-06  3.42642896E-06  3.96877209E-06  4.74255563E-06  5.63677369E-06  7.21453423E-06  9.15356671E-06  1.20434095E-05  1.11106033E-05
    1.30024917E-05  1.10509211E-05  1.04645145E-05  1.43139791E-05  1.63213123E-05  1.77258948E-05  2.03579252E-05  2.35388860E-05  2.61875964E-05  2.48072608E-05  2.60683272E-05  2.20190557E-05  1.89866339E-05  2.08638307E-05  2.31018254E-05  2.70177161E-05  3.09164368E-05  3.44548535E-05  3.29083881E-05  2.81515758E-05
    2.70647669E-05  2.61312308E-05  2.56125607E-05  2.31155084E-05  2.02516571E-05  1.99952696E-05  1.97658785E-05  1.80062666E-05  1.45880362E-05  1.16681731E-05  9.99494437E-06  8.77675983E-06  8.40201863E-06  7.65257946E-06  7.17293924E-06  7.22789628E-06  6.76105769E-06  6.48148039E-06  6.48579183E-06  7.64599686E-06
    8.13331914E-06  7.07693876E-06  6.88151408E-06  6.43305765E-06  6.49485717E-06  6.81833914E-06  8.11226547E-06  9.87981145E-06  9.41175757E-06  1.17063241E-05  1.47109505E-05  1.64060224E-05  1.77577259E-05  1.86777876E-05  2.16291172E-05  1.72809978E-05  1.65144574E-05  2.02035110E-05  2.11886465E-05  2.16227523E-05
    2.02674528E-05  2.30889257E-05  1.93780376E-05  1.40759316E-05  1.24915117E-05  1.11810680E-05  1.18184437E-05  1.30548070E-05  1.48207979E-05  1.76884728E-05  1.91367906E-05  2.15162810E-05  1.96154441E-05  1.55278406E-05  1.32428524E-05  1.31774422E-05  1.40448462E-05  1.20108114E-05  1.08686944E-05  1.11976921E-05
    1.05116075E-05  9.04948063E-06  7.67546463E-06  7.90894400E-06  7.84881141E-06  6.82020099E-06  5.74080577E-06  4.65064567E-06  4.09458347E-06  3.56138534E-06  3.69871010E-06  3.97651414E-06  3.48980379E-06  3.91402661E-06  4.54509667E-06  5.66007877E-06  6.98470427E-06  8.87578907E-06  1.19595814E-05  1.08734325E-05
    1.37877737E-05  1.16714755E-05  1.03902178E-05  1.32070952E-05  1.56943536E-05  1.83516084E-05  2.07590262E-05  2.53484117E-05  2.91928622E-05  2.79238817E-05  3.06933436E-05  2.61843987E-05  2.16086356E-05  2.16729468E-05  2.35014585E-05  2.75868668E-05  3.18214976E-05  3.76204517E-05  3.74601588E-05  3.18479477E-05
    2.88018847E-05  2.71667654E-05  2.77943400E-05  2.62408396E-05  2.33885234E-05  2.25652680E-05  2.23077787E-05  2.07147145E-05  1.66169347E-05  1.31277023E-05  1.09115870E-05  9.59044426E-06  9.05930138E-06  7.97402372E-06  7.30667629E-06  7.17784445E-06  6.80112824E-06  6.37865040E-06  6.16696149E-06  7.44417593E-06
    8.33677554E-06  7.65470322E-06  7.30496006E-06  6.64075319E-06  6.57166860E-06  6.50775740E-06  7.91090332E-06  1.01093998E-05  9.64740845E-06  1.11911736E-05  1.31871261E-05  1.52767516E-05  1.59038069E-05  1.70784024E-05  2.15636092E-05  1.81383062E-05  1.73031304E-05  2.01414326E-05  2.26396816E-05  2.27649690E-05
    1.93779299E-05  2.21546361E-05  1.93393825E-05  1.46233782E-05  1.29395983E-05  1.14552691E-05  1.16053106E-05  1.22580023E-05  1.36890868E-05  1.58829004E-05  1.75098232E-05  2.08482364E-05  2.05273032E-05  1.66940118E-05  1.30203218E-05  1.21805048E-05  1.32648867E-05  1.17674462E-05  1.07201542E-05  1.10269569E-05
    1.14234904E-05  1.03397888E-05  8.49302575E-06  8.45805750E-06  8.27673380E-06  7.36218030E-06  6.04166972E-06  4.89229159E-06  4.47292593E-06  3.83442851E-06  3.96628690E-06  4.16725296E-06  3.69381287E-06  3.92792196E-06  4.31792709E-06  5.51535316E-06  6.64124612E-06  8.63181349E-06  1.20496929E-05  1.12824560E-05
    1.42028619E-05  1.24360901E-05  1.08270310E-05  1.26959729E-05  1.51065408E-05  1.83583792E-05  2.02508324E-05  2.57669121E-05  3.08756899E-05  3.10023000E-05  3.61021935E-05  3.21755450E-05  2.62041704E-05  2.33428388E-05  2.39588947E-05  2.73219041E-05  3.14697608E-05  3.95459341E-05  4.19978360E-05  3.68330988E-05
    3.13695523E-05  2.79697027E-05  2.88324616E-05  2.85601222E-05  2.66833150E-05  2.56033282E-05  2.52766418E-05  2.39011812E-05  1.92302915E-05  1.49628085E-05  1.18452649E-05  1.03337285E-05  9.83129218E-06  8.50796271E-06  7.57710397E-06  7.27803468E-06  7.07707392E-06  6.51310094E-06  5.95765207E-06  6.97824089E-06
    8.06521466E-06  8.01086793E-06  7.76687322E-06  7.17041424E-06  7.01435374E-06  6.43971290E-06  7.56606857E-06  9.78041104E-06  9.80916453E-06  1.08627464E-05  1.22132087E-05  1.48015662E-05  1.48880134E-05  1.58618649E-05  2.06117829E-05  1.82274850E-05  1.72617008E-05  1.89160832E-05  2.34257306E-05  2.48165656E-05
    2.01686958E-05  2.20390074E-05  1.90067790E-05  1.46809478E-05  1.28272519E-05  1.17436267E-05  1.18065817E-05  1.17045558E-05  1.28806957E-05  1.43910541E-05  1.57491305E-05  1.90840150E-05  2.04847609E-05  1.79495285E-05  1.32670848E-05  1.16228189E-05  1.27303003E-05  1.18734592E-05  1.08024752E-05  1.05289842E-05
    1.15912813E-05  1.12635509E-05  9.38865076E-06  9.21600150E-06  8.95802732E-06  8.22790954E-06  6.56875942E-06  5.08940995E-06  4.63494288E-06  4.01751653E-06  4.25798826E-06  4.46200221E-06  4.09704884E-06  4.16025180E-06  4.28331959E-06  5.37010082E-06  6.16874869E-06  8.07733491E-06  1.15775002E-05  1.17706905E-05
    1.39569710E-05  1.28278240E-05  1.13568079E-05  1.24982404E-05  1.48861116E-05  1.85127363E-05  1.97465816E-05  2.52600970E-05  3.04357499E-05  3.23039394E-05  3.98276449E-05  3.87944161E-05  3.33977608E-05  2.66299149E-05  2.51122471E-05  2.68237580E-05  2.96815383E-05  3.83972420E-05  4.39021561E-05  4.15938529E-05
    3.43553986E-05  2.85924619E-05  2.86931355E-05  2.92043283E-05  2.89980587E-05  2.83357017E-05  2.81003273E-05  2.69359651E-05  2.20813057E-05  1.72006814E-05  1.29568720E-05  1.08902002E-05  1.04868749E-05  9.12337017E-06  7.81976103E-06  7.28727542E-06  7.39766502E-06  6.90145589E-06  6.01444970E-06  6.57699996E-06
    7.50841318E-06  7.87693152E-06  7.77102306E-06  7.60225895E-06  7.69269758E-06  6.72210282E-06  7.48201528E-06  9.31427034E-06  9.84163308E-06  1.04166694E-05  1.11837474E-05  1.41114226E-05  1.41989714E-05  1.52386980E-05  1.99407101E-05  1.85857173E-05  1.70150775E-05  1.67436158E-05  2.18194313E-05  2.52720758E-05
    2.15381538E-05  2.31654283E-05  1.97585254E-05  1.51578017E-05  1.23275643E-05  1.16237631E-05  1.20033770E-05  1.13179033E-05  1.22106486E-05  1.32732821E-05  1.43914204E-05  1.70234855E-05  1.93920851E-05  1.86921904E-05  1.36428544E-05  1.12616148E-05  1.21372087E-05  1.22219910E-05  1.14814220E-05  1.03971021E-05
    1.14138467E-05  1.15437996E-05  1.00209888E-05  9.83652054E-06  9.64512203E-06  9.33050880E-06  7.49152483E-06  5.53122902E-06  4.74352379E-06  4.07579552E-06  4.38927051E-06  4.61916382E-06  4.53419909E-06  4.53642014E-06  4.51262258E-06  5.48481088E-06  5.89003464E-06  7.46585657E-06  1.04386332E-05  1.16027367E-05
    1.35568742E-05  1.28228349E-05  1.16622626E-05  1.21130134E-05  1.45689598E-05  1.87069668E-05  1.98039720E-05  2.52191705E-05  2.95869299E-05  3.22250283E-05  4.02207370E-05  4.31085804E-05  4.19845585E-05  3.20950941E-05  2.80693426E-05  2.74442600E-05  2.80879681E-05  3.53118745E-05  4.22339216E-05  4.42762306E-05
    3.70293906E-05  2.92884740E-05  2.80180140E-05  2.84489725E-05  2.98877895E-05  3.04758301E-05  3.07164971E-05  2.95891573E-05  2.47532322E-05  1.95612456E-05  1.43565792E-05  1.14053309E-05  1.08907940E-05  9.76184605E-06  8.09234745E-06  7.14353142E-06  7.47474240E-06  7.34451189E-06  6.34336700E-06  6.42688824E-06
    7.04628591E-06  7.51860561E-06  7.30440272E-06  7.50075001E-06  8.11241498E-06  7.11086336E-06  7.65791241E-06  9.06570805E-06  1.00677165E-05  1.01763652E-05  1.02436908E-05  1.28821188E-05  1.30473494E-05  1.43637000E-05  1.91197608E-05  1.97184616E-05  1.77046612E-05  1.50954478E-05  1.88826531E-05  2.27766765E-05
    2.13678502E-05  2.37106067E-05  2.13535951E-05  1.69042849E-05  1.22214648E-05  1.13540277E-05  1.19570728E-05  1.10166197E-05  1.15334521E-05  1.21970632E-05  1.33206180E-05  1.52038271E-05  1.77166666E-05  1.87943430E-05  1.40688630E-05  1.09919585E-05  1.12037094E-05  1.21909609E-05  1.24423181E-05  1.09240569E-05
    1.16309400E-05  1.15872987E-05  1.03509846E-05  1.00748827E-05  9.97970511E-06  1.02860331E-05  8.64170714E-06  6.35055070E-06  5.04395862E-06  4.17785480E-06  4.43577923E-06  4.59318846E-06  4.77753060E-06  4.77946958E-06  4.80930388E-06  5.82530529E-06  5.96843042E-06  7.22434424E-06  9.36521930E-06  1.09036038E-05
    1.35029625E-05  1.29056391E-05  1.19690952E-05  1.15844442E-05  1.37870367E-05  1.81070019E-05  1.98306844E-05  2.57926512E-05  2.98499244E-05  3.30015579E-05  3.94376210E-05  4.43212994E-05  4.85755826E-05  3.86090555E-05  3.34588499E-05  3.03183438E-05  2.84012097E-05  3.31376466E-05  3.94283761E-05  4.48586780E-05
    3.89401466E-05  3.03517140E-05  2.76457567E-05  2.74032519E-05  2.98113745E-05  3.21348238E-05  3.36555117E-05  3.25996435E-05  2.75768205E-05  2.19099627E-05  1.60312740E-05  1.21581913E-05  1.11265341E-05  1.03480715E-05  8.56026855E-06  7.09208498E-06  7.30595436E-06  7.59588166E-06  6.84399174E-06  6.54405970E-06
    6.82052426E-06  7.28344162E-06  6.83577142E-06  7.01393423E-06  7.95029801E-06  7.26714749E-06  7.76501634E-06  8.86817824E-06  1.05226696E-05  1.04809710E-05  9.88905366E-06  1.18408399E-05  1.16616774E-05  1.27845519E-05  1.69659030E-05  2.04920259E-05  1.95561866E-05  1.48009746E-05  1.67848465E-05  1.93541768E-05
    1.93212678E-05  2.18278315E-05  2.18397574E-05  1.94688922E-05  1.29455614E-05  1.14518041E-05  1.19471560E-05  1.09240860E-05  1.09921516E-05  1.11029354E-05  1.21709675E-05  1.35160271E-05  1.58309852E-05  1.82750959E-05  1.45884500E-05  1.10368420E-05  1.02447598E-05  1.14554585E-05  1.27822780E-05  1.16996948E-05
    1.25120791E-05  1.20133780E-05  1.07534099E-05  1.01653161E-05  9.94508124E-06  1.07124825E-05  9.56694415E-06  7.41592895E-06  5.59027184E-06  4.45216689E-06  4.58114296E-06  4.61849376E-06  4.90212792E-06  4.76758223E-06  4.88966082E-06  6.01605746E-06  6.19438065E-06  7.39992082E-06  8.85310199E-06  1.03904876E-05
    1.37953849E-05  1.32926404E-05  1.26914595E-05  1.14699575E-05  1.30096940E-05  1.66385330E-05  1.89460297E-05  2.55379858E-05  3.04658606E-05  3.55553953E-05  4.03862899E-05  4.55401441E-05  5.25011279E-05  4.39586175E-05  3.99950698E-05  3.53192589E-05  3.13338932E-05  3.34218357E-05  3.81955429E-05  4.55485032E-05
    4.09699824E-05  3.20878965E-05  2.79478852E-05  2.69580897E-05  2.95554248E-05  3.32535998E-05  3.69907152E-05  3.68094145E-05  3.15637994E-05  2.48450401E-05  1.80958022E-05  1.33099554E-05  1.14240539E-05  1.08502605E-05  9.24588650E-06  7.35160707E-06  7.20478985E-06  7.66494734E-06  7.36421872E-06  6.85235047E-06