# File generated by Flopy version 3.5.0 on 03/06/2024 at 10:47:59.
BEGIN griddata
  strt
    INTERNAL  FACTOR  1.0
        15.00000000      15.00000000      15.00000000      15.00000000      15.00000000      15.00000000      15.00000000      15.00000000      15.00000000      15.00000000      15.00000000      15.00000000      15.00000000      15.00000000      15.00000000      15.00000000      15.00000000      15.00000000      15.00000000      15.00000000
        15.00000000      15.00000000      15.00000000      15.00000000      15.00000000      15.00000000      15.00000000      15.00000000      15.00000000      15.00000000      15.00000000      15.00000000      15.00000000      15.00000000      15.00000000      15.00000000      15.00000000      15.00000000      15.00000000      15.00000000
        15.00000000      15.00000000      15.00000000      15.00000000      15.00000000      15.00000000      15.00000000      15.00000000      15.00000000      15.00000000      15.00000000      15.00000000      15.00000000      15.00000000      15.00000000      15.00000000      15.00000000      15.00000000      15.00000000      15.00000000
        15.00000000      15.00000000      15.00000000      15.00000000      15.00000000      15.00000000      15.00000000      15.00000000      15.00000000      15.00000000      15.00000000      15.00000000      15.00000000      15.00000000      15.00000000      15.00000000      15.00000000      15.00000000      15.00000000      15.00000000
        15.00000000      15.00000000      15.00000000      15.00000000      15.00000000      15.00000000      15.00000000      15.00000000      15.00000000      15.00000000      15.00000000      15.00000000      15.00000000      15.00000000      15.00000000      15.00000000      15.00000000      15.00000000      15.00000000      15.00000000
        15.37447813      15.36370831      15.36019130      15.35417311      15.34378736      15.33698211      15.32926958      15.31764526      15.29541322      15.26110765      15.23026406      15.21299328      15.19956030      15.18516571      15.16864635      15.15376239      15.14083611      15.12579458      15.11204132      15.10126056
        15.09327826      15.08747034      15.08214451      15.07674180      15.07558797      15.07447461      15.07075794      15.06504079      15.06006841      15.05686898      15.05565241      15.05362228      15.05171552      15.04973033      15.04793216      15.04682356      15.04625025      15.04796357      15.05176452      15.05427314
        15.05465993      15.05478756      15.05573935      15.05830459      15.06030453      15.06222386      15.06297514      15.06246589      15.06123015      15.06084169      15.06088005      15.06215394      15.06339327      15.06209188      15.05915814      15.05607272      15.05280236      15.04984863      15.04743600      15.04649984
        15.04628704      15.04521737      15.04455384      15.04477249      15.04595352      15.04748244      15.04886210      15.05033671      15.05232437      15.05372192      15.05398814      15.05382791      15.05423875      15.05511841      15.05530732      15.05453732      15.05498795      15.05613659      15.05746413      15.05904099
        15.06055976      15.06318342      15.06622468      15.06822117      15.06937038      15.07008469      15.07007165      15.06896454      15.06669916      15.06672807      15.06804873      15.06827408      15.06712859      15.06624243      15.06563805      15.06712197      15.07014940      15.07259657      15.07422929      15.07548773
        15.71568024      15.70918750      15.70083188      15.69058692      15.67365504      15.65695935      15.63442615      15.60833203      15.57634902      15.52353313      15.46234383      15.41534350      15.38115387      15.35449237      15.32743132      15.29901620      15.27311013      15.24624514      15.22254572      15.20227219
        15.18480142      15.17248327      15.16439437      15.15481520      15.14795973      15.14214563      15.13651004      15.12968119      15.12117800      15.11256278      15.10732846      15.10358475      15.10012119      15.09519020      15.09003888      15.08806326      15.08769077      15.08936135      15.09373307      15.09899354
        15.10304921      15.10523093      15.10548070      15.10699641      15.10907491      15.11165956      15.11264401      15.11191490      15.11051662      15.11014512      15.10965099      15.11020305      15.11178047      15.11064718      15.10565001      15.09832735      15.09108030      15.08476527      15.08030802      15.07815391
        15.07770919      15.07683107      15.07619519      15.07579993      15.07625650      15.07804695      15.08063408      15.08297794      15.08541014      15.08752622      15.08900188      15.08996733      15.09080127      15.09177087      15.09203613      15.09082722      15.08975271      15.08957630      15.09091910      15.09420424
        15.09733260      15.10047002      15.10402329      15.10793219      15.11117385      15.11269242      15.11277250      15.11320112      15.11244075      15.11213118      15.11247981      15.11323949      15.11417369      15.11478127      15.11366193      15.11469972      15.11940175      15.12497861      15.12887306      15.13021640
        16.03633190      16.03816400      16.03480084      16.02340038      15.99833822      15.97034736      15.93461246      15.89254246      15.84925201      15.78560767      15.70555611      15.63151705      15.57014984      15.52161703      15.48098138      15.44283715      15.40849218      15.37054417      15.33444978      15.30554770
        15.28254889      15.26569083      15.25357713      15.23962433      15.22841134      15.21885975      15.20829035      15.19671373      15.18490226      15.17405999      15.16521925      15.15623954      15.14858846      15.14305324      15.13796750      15.13502570      15.13244615      15.13284549      15.13763846      15.14417534
        15.14875348      15.15158244      15.15318491      15.15549690      15.15667964      15.15771316      15.15919511      15.16048987      15.15981774      15.15861557      15.15644250      15.15526648      15.15653759      15.15512543      15.14897696      15.13939352      15.13023816      15.12208710      15.11474431      15.11028975
        15.10956820      15.10903618      15.10759166      15.10548266      15.10492936      15.10700695      15.11051128      15.11377452      15.11719654      15.12067827      15.12298900      15.12358362      15.12360057      15.12457894      15.12552642      15.12455130      15.12252843      15.12158350      15.12278723      15.12651209
        15.12993367      15.13335657      15.13732160      15.14165325      15.14518151      15.14766514      15.14963867      15.15251169      15.15386006      15.15432564      15.15511172      15.15638142      15.15780537      15.15926625      15.15911635      15.16001713      15.16385558      15.16885729      15.17349898      15.17594778
        16.34035913      16.34367352      16.34840385      16.34537249      16.32126466      16.28429791      16.23532001      16.17702837      16.12327640      16.05202197      15.95768259      15.85967264      15.77107258      15.69659002      15.63514745      15.58302176      15.54119759      15.49801699      15.45332879      15.41467222
        15.38324484      15.36071607      15.34607260      15.33008557      15.31417545      15.29957354      15.28439772      15.26970426      15.25463702      15.24055667      15.22879742      15.21684132      15.20556590      15.19644552      15.18802533      15.18393200      15.18144503      15.18053298      15.18266889      15.18774946
        15.19309753      15.19765800      15.19985240      15.20145261      15.20252068      15.20370398      15.20524052      15.20634980      15.20611923      15.20604487      15.20472051      15.20196892      15.20073659      15.19876895      15.19404876      15.18362455      15.17099763      15.15963519      15.14998059      15.14348377
        15.14113393      15.14004096      15.13938483      15.13854529      15.13785529      15.13869949      15.14190290      15.14636199      15.15066591      15.15420486      15.15633987      15.15675653      15.15632370      15.15659524      15.15721194      15.15664832      15.15531026      15.15418637      15.15315800      15.15448134
        15.15770132      15.16233061      15.16690808      15.17135013      15.17583761      15.18093255      15.18558218      15.18969593      15.19217268      15.19385684      15.19557480      15.19637145      15.19687820      15.19882848      15.20093207      15.20301327      15.20579058      15.20916173      15.21331224      15.21550131
        16.64599041      16.64352780      16.64496422      16.64645973      16.63306597      16.60192413      16.54684113      16.46649791      16.39392215      16.31777415      16.21840643      16.10063880      15.98339054      15.88255546      15.79827941      15.72582550      15.66976386      15.62015453      15.57114662      15.52605937
        15.48533923      15.45455033      15.43713646      15.42300919      15.40668042      15.38887346      15.36885164      15.35021966      15.33073491      15.31172434      15.29611873      15.28179131      15.26765458      15.25503594      15.24263583      15.23624253      15.23360210      15.23159441      15.23093212      15.23335384
        15.23716072      15.24105488      15.24335172      15.24560164      15.24790208      15.24927056      15.25050387      15.25155075      15.25177826      15.25198723      15.25078948      15.24768767      15.24570161      15.24296904      15.23811209      15.22789576      15.21406530      15.20038507      15.18757280      15.17742430
        15.17290433      15.17201600      15.17272567      15.17299102      15.17257005      15.17329807      15.17632331      15.18034561      15.18410000      15.18758898      15.19040831      15.19132267      15.18957525      15.18798990      15.18805024      15.18806738      15.18649279      15.18380060      15.18137668      15.18206350
        15.18484083      15.18895718      15.19405968      15.20032079      15.20661747      15.21169097      15.21558651      15.22047667      15.22598631      15.23000629      15.23251873      15.23407712      15.23618689      15.23897227      15.24061052      15.24123770      15.24310060      15.24565788      15.24850549      15.24938244
        16.95210930      16.94130705      16.93718957      16.93771219      16.92688072      16.90177623      16.85512386      16.76965557      16.67415885      16.57904544      16.47230235      16.34873625      16.21231046      16.08309700      15.96968615      15.87227584      15.79839539      15.73792180      15.68092023      15.63116485
        15.58746758      15.55196173      15.52908273      15.51358736      15.49956264      15.48434220      15.46243432      15.43699779      15.41045425      15.38745697      15.37004922      15.35343347      15.33580548      15.32046923      15.30462279      15.29252106      15.28487731      15.28021637      15.27884150      15.28005260
        15.28195839      15.28463276      15.28769258      15.29105158      15.29368884      15.29373145      15.29383220      15.29457835      15.29493411      15.29537530      15.29532633      15.29384520      15.29257650      15.28922098      15.28314470      15.27188687      15.25646461      15.24033847      15.22469127      15.21189272
        15.20604237      15.20541487      15.20719706      15.20946061      15.21084478      15.21159022      15.21292851      15.21523478      15.21823677      15.22149493      15.22408609      15.22507202      15.22295310      15.21988708      15.21820839      15.21713395      15.21547835      15.21358510      15.21130066      15.21041823
        15.21154606      15.21524118      15.22085336      15.22724930      15.23351621      15.23934741      15.24485972      15.25054061      15.25648479      15.26174420      15.26673106      15.26998025      15.27130853      15.27202197      15.27331965      15.27498197      15.27720836      15.27918463      15.28194246      15.28353968
        17.27284087      17.25079206      17.23225890      17.22561153      17.21325899      17.18881717      17.14629335      17.06500290      16.95884675      16.84671727      16.72471181      16.59024625      16.44103330      16.29281122      16.15555129      16.02817598      15.92748347      15.85078871      15.78525504      15.73144255
        15.68624314      15.64834339      15.62273840      15.60646110      15.59267396      15.57837439      15.55836465      15.53359375      15.50235094      15.46936090      15.44422877      15.42562556      15.40771156      15.38945442      15.36773341      15.34969537      15.33953778      15.33339372      15.32984143      15.32894491
        15.33018403      15.33220943      15.33276115      15.33248964      15.33421836      15.33570410      15.33665817      15.33675044      15.33685344      15.33853760      15.34044882      15.34000029      15.33782043      15.33361801      15.32753159      15.31585374      15.29799475      15.27929774      15.26244906      15.24882849
        15.24163991      15.24022256      15.24213436      15.24579477      15.24843483      15.24914792      15.24956740      15.25130268      15.25383694      15.25629418      15.25815575      15.25943938      15.25777931      15.25318698      15.24869341      15.24580803      15.24379040      15.24225219      15.24012418      15.23866786
        15.23926153      15.24239471      15.24729340      15.25298557      15.25964000      15.26649561      15.27232896      15.27706281      15.28259528      15.28877156      15.29520307      15.29986652      15.30264027      15.30421759      15.30547666      15.30647892      15.30790560      15.30967835      15.31231155      15.31361482
        17.59712127      17.57213273      17.53769542      17.51412819      17.49090109      17.46317876      17.42220156      17.34764147      17.23878745      17.11512380      16.98030764      16.83365578      16.66851774      16.50135771      16.34567189      16.19446742      16.06503757      15.96450659      15.88250950      15.82178894
        15.78011993      15.74591451      15.71956235      15.70098614      15.68625017      15.67260909      15.65406829      15.63008336      15.59800211      15.55864068      15.52429268      15.49874873      15.47788441      15.45956732      15.43731705      15.41407811      15.39714245      15.38600858      15.38040066      15.37842579
        15.37822902      15.37850676      15.37798344      15.37668200      15.37756674      15.37820909      15.37893756      15.37947112      15.37959750      15.38033252      15.38158798      15.38196183      15.38156456      15.37858939      15.37231687      15.36025283      15.34115861      15.31929098      15.29815169      15.28079622
        15.27381551      15.27415927      15.27696373      15.28082346      15.28443883      15.28756053      15.28970665      15.29092923      15.29176238      15.29279555      15.29346318      15.29368612      15.29113013      15.28545753      15.27975154      15.27580774      15.27304690      15.27109203      15.26999381      15.26976926
        15.26979236      15.27001394      15.27252652      15.27730516      15.28362944      15.28999219      15.29581774      15.30142635      15.30799762      15.31418339      15.32007656      15.32543828      15.33026054      15.33317144      15.33372962      15.33339435      15.33427554      15.33613667      15.33835802      15.33950148
        17.90881219      17.88257159      17.84392482      17.81215929      17.77493455      17.73202790      17.68592126      17.61785511      17.51303181      17.38014443      17.22874430      17.07048081      16.89550509      16.71200409      16.53785913      16.36767919      16.21424189      16.08750440      15.97799909      15.89798288
        15.86371476      15.84112400      15.81880839      15.79753935      15.77973437      15.76568232      15.74845775      15.72560056      15.69455946      15.65264199      15.61077565      15.57576466      15.54731937      15.52609811      15.50510767      15.48069520      15.45881777      15.44185173      15.43279070      15.42907175
        15.42749294      15.42701908      15.42593792      15.42265810      15.42068974      15.41948687      15.41981659      15.42083849      15.42106309      15.42141445      15.42287385      15.42448125      15.42518241      15.42355080      15.41854431      15.40699408      15.38443929      15.35488160      15.32474428      15.30082071
        15.29952102      15.30589449      15.31203314      15.31795798      15.32325639      15.32734490      15.32964533      15.33065428      15.33116187      15.33114893      15.32994074      15.32868169      15.32627422      15.32132938      15.31456294      15.30817215      15.30356661      15.30071632      15.29886320      15.29714649
        15.29609617      15.29607890      15.29834872      15.30188380      15.30684339      15.31329264      15.32053319      15.32646004      15.33126556      15.33580602      15.34156381      15.34754265      15.35245068      15.35574373      15.35781803      15.35887884      15.35898870      15.35881713      15.35965328      15.36115336
        18.21838249      18.19134996      18.14484739      18.10544019      18.06310851      18.00931841      17.94797722      17.87222970      17.76798869      17.63718802      17.48051293      17.30876459      17.12003449      16.92491005      16.73953358      16.55323717      16.37357879      16.21595980      16.06949591      15.95200203
        15.93468687      15.93097729      15.91939058      15.90106024      15.88032735      15.86103641      15.84093241      15.81827065      15.79000383      15.74741182      15.69803791      15.65437200      15.61959555      15.59378169      15.57066249      15.54561064      15.52306436      15.50244175      15.48705121      15.47832160
        15.47487745      15.47504003      15.47461395      15.47019066      15.46609059      15.46395045      15.46356608      15.46388625      15.46378077      15.46419117      15.46535665      15.46661927      15.46674258      15.46565839      15.46204647      15.45217723      15.42807369      15.38947424      15.34280065      15.30048145
        15.31647878      15.33614603      15.34895985      15.35754883      15.36332651      15.36733269      15.37021004      15.37190125      15.37255209      15.37202368      15.36982906      15.36746385      15.36409549      15.35810662      15.35001365      15.34166202      15.33489227      15.32970750      15.32613479      15.32407121
        15.32363936      15.32345722      15.32441575      15.32652107      15.33037800      15.33578378      15.34160404      15.34652793      15.35129638      15.35614910      15.36122759      15.36631761      15.37159190      15.37670175      15.37995778      15.38051217      15.37941387      15.37847329      15.37844731      15.37915700
        18.52082255      18.49208750      18.44071908      18.39260711      18.34487561      18.28510408      18.21360154      18.12883592      18.01793442      17.88334212      17.72598491      17.55245986      17.35537503      17.14170532      16.93952499      16.74236918      16.54676905      16.36401031      16.17900007      16.00487742
        16.01556247      16.03087229      16.02555883      16.00665194      15.98249099      15.95902909      15.93463114      15.90719027      15.87745898      15.83872161      15.79101606      15.74093798      15.69504086      15.66145372      15.63663732      15.61091411      15.58517371      15.56003503      15.54100991      15.52985232
        15.52332873      15.52131463      15.52215762      15.52107833      15.51744896      15.51198924      15.50771237      15.50717225      15.50773293      15.50805395      15.50811802      15.50893925      15.50937356      15.50846731      15.50413333      15.49448124      15.47210679      15.42940409      15.36234367      15.28132982
        15.33320064      15.37116851      15.39039578      15.40091405      15.40688382      15.41092138      15.41391269      15.41502378      15.41502906      15.41463429      15.41268927      15.40940595      15.40437795      15.39650537      15.38695184      15.37652333      15.36678772      15.35872920      15.35329746      15.35052684
        15.34975637      15.34903409      15.34955434      15.35129594      15.35364643      15.35674047      15.36091522      15.36583286      15.37081762      15.37504545      15.37898268      15.38362032      15.38866866      15.39314641      15.39594075      15.39724226      15.39733836      15.39666942      15.39585345      15.39622971
        18.82128854      18.78453162      18.72541817      18.67286438      18.62342324      18.56071525      18.48125904      18.38928701      18.27292289      18.13102696      17.96673030      17.78923996      17.59294347      17.36924346      17.14730587      16.93407226      16.72944196      16.54493393      16.37400318      16.22485743
        16.17921166      16.16028624      16.14073169      16.11546945      16.08625583      16.05788533      16.02942586      15.99777782      15.96436476      15.92512724      15.87873383      15.82822869      15.77617262      15.73241429      15.69980632      15.67111297      15.64500739      15.61909994      15.59682195      15.58239203
        15.57317875      15.56970863      15.57055147      15.57044431      15.56747975      15.56222340      15.55652286      15.55358034      15.55214458      15.55219931      15.55281354      15.55305076      15.55137355      15.54840589      15.54350697      15.53580519      15.51901127      15.48645365      15.44042937      15.39380148
        15.40736868      15.42641486      15.43880749      15.44751781      15.45353276      15.45668269      15.45831272      15.45914158      15.45989019      15.45981133      15.45733093      15.45274070      15.44676044      15.43737646      15.42496878      15.41112057      15.39894394      15.38977961      15.38289425      15.37770079
        15.37520910      15.37403319      15.37393976      15.37402644      15.37409646      15.37564151      15.37908070      15.38324798      15.38708911      15.39103598      15.39551568      15.40012509      15.40384636      15.40726528      15.41068728      15.41355242      15.41447615      15.41368311      15.41251152      15.41275029
        19.11712346      19.07844311      19.00694047      18.93897566      18.88688235      18.82995857      18.75284806      18.65415551      18.53054714      18.38234282      18.21074749      18.02456260      17.82235257      17.59310269      17.35974363      17.13234643      16.91512863      16.72772513      16.57155972      16.43983040
        16.35594264      16.29938563      16.25765205      16.22230493      16.18737478      16.15398092      16.12213115      16.08824954      16.05199125      16.01033420      15.96195859      15.91080530      15.85728596      15.80770901      15.76651137      15.73128926      15.70275075      15.67693580      15.65288377      15.63572809
        15.62387079      15.61799689      15.61742712      15.61811706      15.61723649      15.61378731      15.60747749      15.60199926      15.59792562      15.59591782      15.59559563      15.59528194      15.59344573      15.59036679      15.58495087      15.57811604      15.56709403      15.54692039      15.51975416      15.49290908
        15.48562481      15.48764929      15.49174015      15.49665977      15.50161020      15.50510873      15.50718109      15.50703875      15.50565440      15.50384530      15.50107291      15.49617591      15.48965698      15.47910852      15.46502207      15.44954189      15.43470871      15.42233344      15.41230662      15.40468602
        15.40012752      15.39654987      15.39388053      15.39322626      15.39374422      15.39504768      15.39683616      15.39957757      15.40329453      15.40734195      15.41056559      15.41345922      15.41662080      15.42057113      15.42421011      15.42685161      15.42854283      15.42971074      15.42955444      15.42916046
        19.38768199      19.35151865      19.28111637      19.20463009      19.14394454      19.08559254      19.01553371      18.92099605      18.79388546      18.63472497      18.44819186      18.25147509      18.04611286      17.81400447      17.57002562      17.33059140      17.10144727      16.90399433      16.74648647      16.61611813
        16.51442041      16.43494946      16.37291269      16.32416685      16.28222275      16.24590729      16.21271428      16.17702729      16.13720865      16.09233868      16.04239015      15.98981399      15.93330817      15.87968863      15.83528298      15.79661148      15.76310735      15.73362243      15.70803871      15.69077470
        15.67683809      15.66655378      15.66260180      15.66345826      15.66437139      15.66219052      15.65601153      15.65002363      15.64500419      15.64044413      15.63783996      15.63695710      15.63630324      15.63445431      15.62894355      15.62211479      15.61440268      15.60286783      15.58757951      15.57083433
        15.55848985      15.55146163      15.54808498      15.54732160      15.54940405      15.55222162      15.55407089      15.55284609      15.54974274      15.54688767      15.54429892      15.53970118      15.53361020      15.52410952      15.50950760      15.49078415      15.47086147      15.45415582      15.44084104      15.43011520
        15.42270143      15.41734986      15.41383088      15.41285290      15.41264224      15.41278854      15.41346602      15.41518248      15.41735242      15.41968597      15.42244897      15.42651114      15.43098417      15.43498969      15.43832573      15.44129445      15.44334856      15.44375537      15.44232906      15.44112491
        19.63639058      19.60531321      19.53986438      19.45940930      19.39192802      19.32848359      19.25991725      19.17071303      19.04867086      18.88767898      18.68676620      18.47281319      18.25763874      18.02390574      17.77723832      17.52877365      17.28318159      17.06785114      16.89894562      16.76293378
        16.65051513      16.55679514      16.48117581      16.42185480      16.37201408      16.32996583      16.29355283      16.25749761      16.21808015      16.17165949      16.11788364      16.06408306      16.00939210      15.95609073      15.90734633      15.86301372      15.82543358      15.79294544      15.76201833      15.73970659
        15.72449322      15.71400105      15.70869205      15.70735233      15.70761790      15.70772070      15.70461842      15.69865393      15.69135253      15.68432747      15.68096403      15.67976877      15.67901887      15.67829120      15.67541958      15.67082013      15.66447875      15.65549445      15.64570490      15.63505261
        15.62394899      15.61266708      15.60339838      15.59738684      15.59630097      15.59725358      15.59819529      15.59754273      15.59486225      15.59112387      15.58702484      15.58166364      15.57565946      15.56708671      15.55267294      15.53150405      15.50688740      15.48611918      15.46990474      15.45644968
        15.44677791      15.43995912      15.43448265      15.43078649      15.42843719      15.42776832      15.42814533      15.42909216      15.43059200      15.43334921      15.43707816      15.44117249      15.44467262      15.44768041      15.45049685      15.45246683      15.45302215      15.45271626      15.45211188      15.45181303
        19.85556398      19.83410149      19.78109913      19.70054194      19.62497732      19.55558594      19.48691630      19.40083669      19.28462059      19.12842804      18.92181799      18.68918543      18.45720970      18.21300646      17.96198056      17.71339162      17.46009588      17.22575032      17.03706402      16.88832989
        16.76654934      16.66292354      16.57691721      16.50888274      16.45145047      16.40400612      16.36470349      16.32866194      16.29126072      16.24776058      16.19499416      16.13901618      16.08158346      16.02677896      15.97678008      15.92924103      15.88665183      15.85028115      15.81584532      15.79016982
        15.77350460      15.76133762      15.75369198      15.75003561      15.74903586      15.74848733      15.74583223      15.74177377      15.73727625      15.73130491      15.72686671      15.72450373      15.72421049      15.72516481      15.72382779      15.72012950      15.71474090      15.70756770      15.69991909      15.69060974
        15.68012448      15.66896075      15.65848743      15.64848896      15.64184770      15.63973392      15.64026999      15.64025733      15.63695402      15.63180170      15.62692086      15.62143398      15.61473168      15.60596507      15.59309312      15.57390959      15.54704645      15.51993624      15.49820510      15.48169303
        15.47022837      15.46123512      15.45311824      15.44770728      15.44490199      15.44376031      15.44335258      15.44380820      15.44562513      15.44821274      15.45021072      15.45227021      15.45504298      15.45794311      15.45996751      15.46067677      15.46089251      15.46123166      15.46109764      15.46039229
        20.05263342      20.03429116      19.99436776      19.92658797      19.84901619      19.76706146      19.68972004      19.60439469      19.49495887      19.34617087      19.14164438      18.89455526      18.64354739      18.38542808      18.12193793      17.86898644      17.61557309      17.37302529      17.16470970      16.99669782
        16.86163440      16.74899976      16.65621806      16.58245922      16.51998397      16.46915624      16.42809528      16.39166606      16.35543328      16.31500355      16.26611367      16.21137027      16.15106806      16.09196690      16.04049600      15.99326266      15.94907117      15.90937066      15.87091290      15.84016571