# File generated by Flopy version 3.5.0 on 03/08/2024 at 15:39:53.
BEGIN griddata
  strt
    INTERNAL  FACTOR  1.0
        15.00000000      15.00000000      15.00000000      15.00000000      15.00000000      15.00000000      15.00000000      15.00000000      15.00000000      15.00000000      15.00000000      15.00000000      15.00000000      15.00000000      15.00000000      15.00000000      15.00000000      15.00000000      15.00000000      15.00000000
        15.00000000      15.00000000      15.00000000      15.00000000      15.00000000      15.00000000      15.00000000      15.00000000      15.00000000      15.00000000      15.00000000      15.00000000      15.00000000      15.00000000      15.00000000      15.00000000      15.00000000      15.00000000      15.00000000      15.00000000
        15.00000000      15.00000000      15.00000000      15.00000000      15.00000000      15.00000000      15.00000000      15.00000000      15.00000000      15.00000000      15.00000000      15.00000000      15.00000000      15.00000000      15.00000000      15.00000000      15.00000000      15.00000000      15.00000000      15.00000000
        15.00000000      15.00000000      15.00000000      15.00000000      15.00000000      15.00000000      15.00000000      15.00000000      15.00000000      15.00000000      15.00000000      15.00000000      15.00000000      15.00000000      15.00000000      15.00000000      15.00000000      15.00000000      15.00000000      15.00000000
        15.00000000      15.00000000      15.00000000      15.00000000      15.00000000      15.00000000      15.00000000      15.00000000      15.00000000      15.00000000      15.00000000      15.00000000      15.00000000      15.00000000      15.00000000      15.00000000      15.00000000      15.00000000      15.00000000      15.00000000
        15.49193036      15.43578876      15.40129626      15.34291908      15.31739219      15.30709791      15.30527085      15.27711196      15.26942781      15.29025500      15.31301527      15.32060039      15.27932303      15.23688602      15.16744123      15.13636350      15.13005449      15.14173023      15.13687623      15.12928559
        15.10010391      15.07288726      15.05600706      15.05456028      15.06214006      15.07592559      15.08107876      15.07456433      15.06913149      15.05913786      15.04852153      15.04166448      15.04190116      15.04423809      15.05181542      15.05597408      15.06011948      15.06036765      15.06292587      15.06388620
        15.06543525      15.06798922      15.06101315      15.05330743      15.04207588      15.04499315      15.05358107      15.06524525      15.06875798      15.06456646      15.05052819      15.04348059      15.03670182      15.03103583      15.02800478      15.02770366      15.02702327      15.02547434      15.02693876      15.02687147
        15.03547795      15.04746879      15.05804789      15.06940489      15.07743574      15.07942168      15.08225906      15.08050847      15.07563063      15.06778375      15.06273498      15.05391336      15.04073274      15.04880503      15.05367358      15.05251624      15.05069443      15.05546969      15.05610827      15.05919328
        15.06209106      15.07258480      15.07841660      15.07680784      15.06902259      15.06723194      15.06764437      15.06111626      15.05250517      15.04680669      15.05239131      15.05360236      15.05801305      15.06772120      15.07171515      15.06058305      15.04627216      15.03088017      15.02774750      15.02568349
        15.92446293      15.87019637      15.80673381      15.73637839      15.65773329      15.61373637      15.57489472      15.56259250      15.52953263      15.53864223      15.55275838      15.57451018      15.53630563      15.47324616      15.38376172      15.29597838      15.25939161      15.26012189      15.26422859      15.25783526
        15.23032234      15.17963267      15.14182341      15.11781372      15.11861063      15.12523088      15.13809942      15.14076987      15.13493691      15.12558225      15.11420212      15.09856214      15.08973948      15.08854670      15.09039471      15.09983425      15.10694426      15.11394638      15.11570607      15.12033192
        15.11942013      15.12287660      15.12020421      15.11382352      15.09847352      15.08956729      15.09595893      15.11145623      15.12483432      15.12942854      15.11947121      15.10028139      15.08902379      15.07057682      15.06067597      15.05399080      15.05368462      15.05187236      15.05379822      15.05740488
        15.06417428      15.07608974      15.09033645      15.10363839      15.11882793      15.12793043      15.13193517      15.13402215      15.12715566      15.11721074      15.10765012      15.10336486      15.09173560      15.08562058      15.09255172      15.09764034      15.09533336      15.09579471      15.09946975      15.10385816
        15.10790105      15.11212331      15.12015310      15.12363297      15.12078068      15.11351152      15.11528747      15.11304001      15.10818099      15.09709231      15.09498876      15.09903306      15.10347390      15.10837792      15.11759936      15.11888155      15.10690474      15.08728742      15.06475607      15.06276487
        16.30932360      16.30091825      16.22362896      16.14695291      16.03937148      15.95648127      15.86298753      15.80759635      15.78127586      15.75630257      15.75842718      15.76396186      15.75442979      15.69433411      15.61437943      15.49937545      15.40745274      15.36672345      15.37116164      15.36591107
        15.35490018      15.30880438      15.25549023      15.21082800      15.18444410      15.17705711      15.17984290      15.18787366      15.19060982      15.18620920      15.17899814      15.16932519      15.15145585      15.14217693      15.13563076      15.13828825      15.14601403      15.15546931      15.16168931      15.16585365
        15.16837092      15.16903925      15.17124923      15.16957866      15.16295894      15.14764124      15.14290941      15.14941330      15.16584309      15.17870727      15.18557613      15.17217674      15.15326346      15.13221595      15.10498972      15.08796076      15.07926013      15.07856280      15.08014107      15.08606583
        15.09333860      15.10289805      15.11436334      15.12993448      15.14373123      15.15838290      15.16760662      15.17296230      15.17164048      15.16454336      15.15267206      15.14380077      15.13879801      15.12968296      15.12654466      15.13071982      15.13462995      15.13194013      15.13460094      15.13868318
        15.14516317      15.14624026      15.15076127      15.15516098      15.15743815      15.15316976      15.14965793      15.15232988      15.15374759      15.14906601      15.14022330      15.14109508      15.14570230      15.15030452      15.15261264      15.16261293      15.16272595      15.15120206      15.12454990      15.10539017
        16.66327370      16.64654988      16.61677937      16.55081646      16.44731440      16.32795791      16.23753819      16.09991489      16.02105341      15.97170174      15.94115154      15.92109283      15.91965240      15.88424154      15.81926778      15.71806523      15.60345154      15.50630100      15.46716040      15.46382901
        15.44950348      15.42761708      15.37834262      15.32652473      15.27770483      15.24911349      15.23124725      15.23179216      15.23546381      15.23947535      15.23544224      15.23367956      15.22484874      15.20887837      15.19484675      15.18458418      15.18565307      15.19185495      15.20119527      15.20553241
        15.21043865      15.21275110      15.21496389      15.21697924      15.22003909      15.21414633      15.20377098      15.19683353      15.20103327      15.21673231      15.23176671      15.23692701      15.22150702      15.20437882      15.17684991      15.14361628      15.11755355      15.10852701      15.10713785      15.11318760
        15.12038958      15.12957895      15.13953525      15.15211158      15.16695702      15.18129621      15.19589518      15.20525678      15.20868339      15.20472007      15.19652049      15.18388672      15.17835910      15.17279972      15.16668836      15.16233854      15.16580038      15.16770605      15.16641459      15.16755604
        15.17180010      15.17713744      15.17823321      15.18181216      15.18513976      15.18815761      15.18661227      15.18647817      15.18901198      15.19218773      15.18773545      15.18418285      15.18416416      15.19056077      15.19416515      15.19680170      15.20469831      15.20387444      15.19099930      15.16930917
        16.97247051      16.95712844      16.93607537      16.89932188      16.84410682      16.71226334      16.61697496      16.49586276      16.32199863      16.20319300      16.13612990      16.08692114      16.05531133      16.03407235      15.98017888      15.90501304      15.80007150      15.69367249      15.59536547      15.56051487
        15.54386554      15.52444611      15.49330525      15.44694216      15.39279266      15.34791540      15.31636593      15.29119944      15.28802907      15.28536195      15.29058094      15.28917467      15.29240318      15.28338155      15.26788711      15.24691290      15.23562619      15.23207224      15.23766252      15.24533917
        15.25131375      15.25514150      15.25749504      15.26013508      15.26530542      15.27151079      15.26787198      15.25978122      15.24896172      15.25450933      15.26686261      15.27959196      15.27960926      15.26836016      15.25224732      15.22500994      15.18439663      15.15285924      15.14231304      15.14075336
        15.14741674      15.15436250      15.16497237      15.17606448      15.18971350      15.20383621      15.21878344      15.23210808      15.24121999      15.24117494      15.23626501      15.22636520      15.21646401      15.20952327      15.20430649      15.20021485      15.19465359      15.19731000      15.19754989      15.19692058
        15.19726657      15.20233914      15.20590543      15.20799399      15.21121511      15.21658498      15.22092889      15.22215392      15.22252400      15.22496324      15.22784032      15.22472437      15.22402254      15.22424187      15.23222188      15.23527877      15.23845085      15.24275894      15.24294457      15.23400894
        17.22218072      17.24001160      17.22957685      17.19860580      17.16247251      17.09532831      16.94959176      16.85827790      16.71133033      16.51363397      16.35206669      16.27770953      16.20312542      16.16237118      16.11396587      16.04803802      15.95956718      15.86488051      15.76201323      15.67458522
        15.64234335      15.62180209      15.59894260      15.56017510      15.51419405      15.45902342      15.42431919      15.38347065      15.35615730      15.34509793      15.34230775      15.34674624      15.34883584      15.35117449      15.34411467      15.32301428      15.29765087      15.28292182      15.27700172      15.28444628
        15.29212393      15.29966070      15.30165673      15.30525975      15.30639988      15.31357464      15.31908279      15.31865999      15.31122834      15.30184148      15.30456426      15.31296531      15.32233454      15.32171805      15.31291777      15.29680331      15.26760648      15.21996235      15.18980030      15.17566664
        15.17518729      15.18105244      15.18998545      15.20160812      15.21314973      15.22571263      15.23917156      15.25437152      15.26671141      15.27440757      15.27371535      15.26778224      15.25529315      15.24620331      15.23731375      15.23303654      15.22791117      15.22407458      15.22527097      15.22709982
        15.22686420      15.22770438      15.23215073      15.23536972      15.23811941      15.24141632      15.24936195      15.25375990      15.25629101      15.25614696      15.25931242      15.26027748      15.25979956      15.25881506      15.26109417      15.26877237      15.27328351      15.27478451      15.27815772      15.28041817
        17.49892915      17.49316022      17.49708521      17.48768448      17.44506111      17.41449040      17.31103290      17.16432218      17.04297556      16.88841538      16.65607117      16.47966961      16.38710470      16.29574704      16.23880033      16.16762709      16.08562355      15.99627521      15.91003697      15.81327441
        15.74623275      15.71534595      15.69987871      15.66979335      15.63009290      15.58235714      15.53404490      15.49683574      15.44884362      15.41965881      15.40226057      15.39913787      15.40089775      15.40554234      15.40668414      15.40039274      15.37278929      15.34686100      15.32833149      15.32372784
        15.33210880      15.34169867      15.34833408      15.34835934      15.35058356      15.35075411      15.35824738      15.36375461      15.36688911      15.36131029      15.35364030      15.34941373      15.35649311      15.36197440      15.36191393      15.34972123      15.33154723      15.29735845      15.25129409      15.22316433
        15.20762891      15.20941157      15.21621375      15.22706180      15.23725402      15.24862827      15.26011449      15.27401230      15.28747530      15.30017766      15.30788703      15.30920115      15.29922263      15.28651851      15.27336259      15.26191935      15.25831902      15.25365273      15.25129041      15.25244222
        15.25631517      15.25713598      15.25983051      15.26259066      15.26686588      15.27001418      15.27229435      15.27743060      15.28154750      15.28512564      15.28688905      15.28990426      15.29004534      15.29115707      15.29183168      15.29577500      15.30068380      15.30476543      15.30490081      15.30832291
        17.77001312      17.74944339      17.73256298      17.73820424      17.71895317      17.67921169      17.63586043      17.51090093      17.34872898      17.18887943      17.02645792      16.76906208      16.59118270      16.46884429      16.36219243      16.28406361      16.19907585      16.10847856      16.02922431      15.94494371
        15.86151681      15.81021749      15.78398001      15.77380323      15.74020319      15.70421913      15.65721040      15.61559007      15.56471531      15.51319088      15.47332702      15.45456264      15.44787408      15.45034458      15.45737853      15.46132544      15.45172636      15.42210346      15.39707567      15.37582499
        15.37342379      15.37924357      15.38895222      15.39293415      15.39570893      15.39519529      15.39624912      15.40321762      15.41170824      15.41412675      15.40899991      15.39644381      15.38822491      15.39401463      15.39676488      15.39446426      15.37962972      15.35982784      15.32354690      15.28344037
        15.25408454      15.24065824      15.24376070      15.25166309      15.26149003      15.27290774      15.28433972      15.29479896      15.30800263      15.32109437      15.33458363      15.34239904      15.34242638      15.32815446      15.31524043      15.29864792      15.28808385      15.28400605      15.28056048      15.27863049
        15.28003733      15.28454420      15.28734330      15.29078462      15.29384198      15.29847025      15.29808664      15.29822766      15.30164318      15.30701263      15.31110907      15.31474806      15.31659132      15.31820290      15.31983823      15.32085565      15.32307294      15.32714107      15.33086313      15.32936776
        18.00767813      17.98871892      17.96953220      17.94112923      17.94487269      17.91470781      17.88505653      17.81048097      17.68405924      17.49905111      17.32957650      17.14557613      16.87568885      16.67545545      16.51841426      16.39900635      16.30508111      16.21762472      16.13075672      16.06579028
        15.98431443      15.92070491      15.87556996      15.85692466      15.84503756      15.81767673      15.77987463      15.73658786      15.69005314      15.62676053      15.57121446      15.52146707      15.50445605      15.49505725      15.50098538      15.50769471      15.51259291      15.49939021      15.47588927      15.44853694
        15.42633435      15.41993294      15.42328174      15.43286754      15.43767151      15.44057796      15.43984443      15.44498538      15.45279116      15.45992509      15.45836319      15.45194807      15.43441418      15.42386708      15.42573020      15.42697213      15.42312404      15.40773058      15.38496440      15.35352561
        15.32007057      15.28920216      15.27695938      15.27733016      15.28613956      15.29646685      15.31043240      15.32016289      15.33063309      15.34280652      15.35630922      15.36887245      15.37551975      15.37140385      15.35807234      15.34530757      15.32761060      15.31689238      15.31104136      15.30768309
        15.30393515      15.30693156      15.31162837      15.31755516      15.32076489      15.32470195      15.32749066      15.32601148      15.32298926      15.32514104      15.33005256      15.33459887      15.33867437      15.34050085      15.34233066      15.34346843      15.34563503      15.34719068      15.35193140      15.35374422
        18.25811491      18.22773306      18.19259441      18.14969522      18.11060202      18.09751135      18.06180068      18.01747803      17.92841743      17.80709800      17.61818361      17.46276356      17.24801704      16.97479866      16.72386732      16.54464159      16.40749043      16.31016988      16.22688193      16.15408892
        16.10069859      16.03744937      15.98872915      15.94682787      15.93457091      15.92228165      15.89684136      15.85248270      15.80658854      15.74642243      15.68125465      15.62107687      15.57510591      15.55785070      15.54524970      15.54847221      15.55329291      15.55751959      15.54508227      15.52498669
        15.49568428      15.47658030      15.46650529      15.46945572      15.47585527      15.48244479      15.48449292      15.48738575      15.49388840      15.50202306      15.50456659      15.50123357      15.49281318      15.47153130      15.45887948      15.45578692      15.45576938      15.44996067      15.43577685      15.41328458
        15.39332843      15.36368337      15.33284270      15.31495813      15.31329733      15.32225937      15.33314933      15.34598592      15.35541824      15.36687835      15.37938570      15.39186996      15.40121879      15.40631167      15.39947493      15.38796416      15.37408149      15.35745539      15.34297589      15.33725141
        15.33425165      15.33068973      15.33448898      15.33982203      15.34638670      15.34955843      15.35260115      15.35259210      15.35025020      15.34562389      15.34680150      15.35057414      15.35596276      15.35992907      15.36178241      15.36271864      15.36410076      15.36651744      15.36845098      15.37232186
        18.51180324      18.47966059      18.40739486      18.35101219      18.28152502      18.23226078      18.19695627      18.15366326      18.09146660      17.99766466      17.87094337      17.70397886      17.53840411      17.32196408      17.03529040      16.74255343      16.55554159      16.40146372      16.31144344      16.23733301
        16.18522949      16.14498036      16.10379919      16.05991625      16.02694908      16.01255629      15.99779087      15.96364141      15.90906857      15.85466728      15.79149098      15.73002683      15.66782529      15.63160746      15.60781430      15.59382881      15.59120501      15.59493855      15.59498800      15.58522312
        15.56581189      15.54301823      15.52687063      15.51701415      15.51643441      15.52025125      15.52733130      15.52855100      15.53373744      15.53774559      15.54442179      15.54539999      15.54403864      15.53191374      15.51024527      15.49362621      15.48642048      15.48296517      15.47706028      15.46320499
        15.44880861      15.43905826      15.41410859      15.38337378      15.35775941      15.35296648      15.35827936      15.36822243      15.38016113      15.39173326      15.40284864      15.41401767      15.42443808      15.43278196      15.43591420      15.42851747      15.41575291      15.40169483      15.38282365      15.36731648
        15.36355855      15.35958422      15.35767782      15.36124487      15.36725921      15.37202414      15.37430974      15.37520274      15.37546177      15.37202202      15.36528940      15.36647634      15.36968723      15.37562084      15.37885801      15.38023237      15.38006736      15.38239444      15.38411081      15.38537513
        18.75945156      18.72534024      18.64101353      18.53586684      18.45291710      18.36303608      18.30492677      18.26128067      18.21089302      18.13536752      18.03475534      17.90369078      17.74971038      17.56004279      17.36052126      17.05183478      16.76483170      16.56436036      16.40608581      16.32230470
        16.26434165      16.22432862      16.19859340      16.17113134      16.13274879      16.10531424      16.08299353      16.06322983      16.01686794      15.95804608      15.89392029      15.83308904      15.77023917      15.70788916      15.67821061      15.65359030      15.63841666      15.63167167      15.63444457      15.63142876
        15.62280129      15.60636840      15.59176071      15.57724163      15.56967256      15.56292057      15.56673159      15.57243540      15.57149267      15.57317178      15.57685022      15.58323392      15.58379911      15.57982455      15.56630610      15.54798155      15.52939571      15.51921901      15.51088757      15.50777158
        15.49861884      15.49066514      15.48412643      15.46706711      15.43548498      15.40360979      15.39313111      15.39399488      15.40371923      15.41482612      15.42596291      15.43502556      15.44659819      15.45552107      15.46285750      15.46279773      15.45615843      15.44030475      15.42871315      15.40670901
        15.39178733      15.38725547      15.38385673      15.38173005      15.38431228      15.38970960      15.39300170      15.39510434      15.39464830      15.39394817      15.39010130      15.38468152      15.38476695      15.38788184      15.39356981      15.39691684      15.39752987      15.39696892      15.39837016      15.39905853
        18.99158308      18.94880898      18.88005413      18.74940562      18.61704214      18.50403956      18.41099286      18.34694182      18.30382883      18.24719369      18.16875820      18.05678397      17.92591576      17.75842197      17.55672251      17.35693349      17.05509442      16.79061201      16.57853362      16.42869311
        16.34680674      16.30277711      16.27194884      16.25656075      16.23050256      16.19654552      16.16702087      16.14364288      16.11768601      16.06930631      15.99962946      15.92853076      15.86944513      15.80508722      15.74727130      15.71787340      15.69845687      15.68000098      15.67400587      15.67285567
        15.66943096      15.66080325      15.64833701      15.63771206      15.62709457      15.62065664      15.60955765      15.61212017      15.61308503      15.61119036      15.61100461      15.61544219      15.61770524      15.61760496      15.61030677      15.60078200      15.58591954      15.56912201      15.55473470      15.54561579
        15.54428585      15.53565429      15.53006912      15.52626959      15.51714870      15.48602582      15.45179968      15.43236221      15.43041631      15.43785011      15.44769479      15.45691963      15.46616257      15.47618666      15.48353602      15.48843849      15.48750965      15.48107369      15.46437531      15.45180300
        15.42839244      15.41302688      15.40540668      15.40268065      15.40069074      15.40395023      15.40889619      15.41254464      15.41395936      15.41358242      15.41231694      15.40816895      15.40366934      15.40302669      15.40618145      15.41099847      15.41431844      15.41378964      15.41325685      15.41338853
        19.14327248      19.12415889      19.07516062      18.97942666      18.82340304      18.66282099      18.52896721      18.43684717      18.36435369      18.32678430      18.26987035      18.19208059      18.06668048      17.93088532      17.73956302      17.53673723      17.32321293      17.05066396      16.79637531      16.59061810
        16.45305216      16.37598923      16.34450920      16.32055000      16.30635408      16.27678498      16.24565517      16.21366746      16.19161550      16.15779996      16.11234368      16.02997633      15.95745529      15.89847770      15.84054149      15.78545019      15.75805073      15.73879984      15.71828655      15.71333853
        15.70917142      15.70630883      15.69757548      15.69014865      15.68185991      15.67660516      15.66512402      15.65039871      15.64939995      15.65081533      15.64877559      15.64877795      15.65271917      15.65284982      15.65194001      15.64261560      15.63589000      15.62521555      15.61232704      15.59489934
        15.58609573      15.58103131      15.57241167      15.56708651      15.56724956      15.56169673      15.53455125      15.49614665      15.46815598      15.46450564      15.46892316      15.47832427      15.48578648      15.49454028      15.50147996      15.50696866      15.50954178      15.50888633      15.50151651      15.48423545
        15.46835701      15.44582373      15.42946258      15.42303857      15.42099695      15.41811020      15.42195078      15.42648305      15.43009088      15.42991030      15.42895751      15.42920315      15.42977964      15.42558019      15.42279653      15.42424298      15.42787077      15.42970725      15.42850460      15.42795329
        19.21672979      19.21759464      19.19955937      19.15401948      19.04371636      18.87999181      18.68398078      18.54697344      18.44317627      18.36820563      18.33184495      18.27951744      18.18878082      18.05224767      17.90139337      17.70530955      17.49796497      17.27296193      17.02651940      16.77869411
        16.59666655      16.46851490      16.40469020      16.38048770      16.36215721      16.34261311      16.31399413      16.28133358      16.24698320      16.21964931      16.18444891      16.13556964      16.05407100      15.98734023      15.93229148      15.87763537      15.82049582      15.79286173      15.77043209      15.75134006
        15.74530425      15.74062270      15.73942786      15.73403725      15.73027794      15.72477335      15.72073197      15.70283421      15.68691341      15.68235708      15.68628312      15.68539188      15.68864798      15.69085028      15.69244000      15.68822178      15.67678197      15.67119450      15.66698132      15.65578283
        15.63654206      15.62470806      15.61493588      15.60762157      15.60215366      15.60433250      15.60030161      15.57801207      15.53193844      15.50020243      15.49381032      15.49735124      15.50515494      15.51123006      15.51777843      15.52292122      15.52660860      15.52702488      15.52511381      15.51592448
        15.49920656      15.48163585      15.46304129      15.44552220      15.43900887      15.43575596      15.43438316      15.43833716      15.44275356      15.44616424      15.44809241      15.44998869      15.45123733      15.45127596      15.44613832      15.44178678      15.43972526      15.44134993      15.44168854      15.44133720
        19.25753848      19.25976104      19.26111947      19.24944863      19.19988547      19.09325950      18.91870772      18.69640071      18.55448465      18.43778035      18.36347133      18.32277455      18.26456217      18.15186491      18.00352185      17.84381493      17.65826850      17.43778869      17.22113070      16.98404102
        16.75938638      16.59608200      16.47609485      16.42715228      16.40692118      16.39154522      16.36893198      16.34214813      16.30757548      16.27171952      16.23748628      16.20333446      16.15071514      16.07678864      16.01009634      15.95765009      15.90610705      15.85003453      15.82351785      15.79916270
        15.78320798      15.77509307      15.77169083      15.77084937      15.77048726      15.76803433      15.76614547      15.75827620      15.73915247      15.72270506      15.71709188      15.72152945      15.72244951      15.72798333      15.73059293      15.73271401      15.72438484      15.71379807      15.70930941      15.71008536
        15.69702556      15.67640264      15.65936159      15.64860596      15.63923328      15.63357339      15.63636002      15.63535853      15.61211632      15.56152064      15.52841981      15.51943797      15.52240496      15.52790972      15.53293657      15.53771533      15.54214665      15.54297775      15.54159158      15.53736853
        15.52773972      15.50986353      15.49182228      15.47450585      15.45981655      15.45544093      15.45171007      15.45179787      15.45525730      15.45987207      15.46301514      15.46536762      15.46593281      15.46745732      15.46706657      15.46157375      15.45546285      15.45199287      15.45246769      15.45250954
        19.28458537      19.28894439      19.29365481      19.29353135      19.28142923      19.22708143      19.12704627      18.93310888      18.70197552      18.54657448      18.42436763      18.34389530      18.29104041      18.21511264      18.08187545      17.92008948      17.76166432      17.57945658      17.35910734      17.15807384
        16.92984742      16.73975477      16.58861054      16.48489037      16.44339305      16.42611256      16.40959986      16.38690410      16.36137260      16.32919519      16.29073828      16.25180071      16.21595415      16.15825297      16.08919435      16.02587613      15.97696575      15.92840398      15.88102613      15.85532655