# File generated by Flopy version 3.5.0 on 03/08/2024 at 15:39:54.
BEGIN options
END options

BEGIN griddata
  icelltype
    CONSTANT  0
  k
    INTERNAL  FACTOR  1.0
    7.20349718E-05  9.82029201E-05  1.08937651E-04  1.58294589E-04  1.35110849E-04  1.50043396E-04  1.04496994E-04  2.05836467E-04  1.38215361E-04  1.33754709E-04  8.24804446E-05  5.97568162E-05  6.44433081E-05  5.84355913E-05  1.14317269E-04  1.36849259E-04  1.55606165E-04  1.05971613E-04  9.86932746E-05  7.27622454E-05
    9.45984697E-05  1.79594680E-04  2.92963131E-04  2.64947219E-04  3.56812622E-04  1.11869576E-04  1.11748788E-04  1.29696653E-04  1.22179571E-04  2.10783843E-04  2.62620798E-04  3.56237306E-04  3.19194193E-04  2.51785256E-04  1.60642745E-04  1.16536634E-04  9.02814216E-05  9.49387369E-05  6.48714001E-05  7.40776223E-05
    4.88943469E-05  3.56297234E-05  4.46346736E-05  6.78743632E-05  1.24067222E-04  1.50969827E-04  1.00374932E-04  6.07488594E-05  5.28791218E-05  5.12221271E-05  9.11535282E-05  8.75051219E-05  1.39488633E-04  1.73622758E-04  2.51264530E-04  2.27531106E-04  3.61364878E-04  3.83613459E-04  5.91435414E-04       0.00146697
    7.63850997E-04  4.04835332E-04  2.91882332E-04  1.21970071E-04  7.94588044E-05  5.91797536E-05  3.85284784E-05  2.49991402E-05  1.56743528E-05  2.13745044E-05  1.82749790E-05  6.29271710E-05  1.04788569E-04  4.43010405E-05  5.46241737E-05  5.88482526E-05  6.06512628E-05  5.33970981E-05  5.25115981E-05  6.02356149E-05
    4.47137981E-05  2.69086982E-05  1.86185952E-05  2.13204641E-05  3.45400854E-05  3.65286400E-05  4.18622852E-05  5.44707073E-05  9.44519592E-05  1.18055884E-04  7.71607572E-05  1.38260037E-04  9.04054199E-05  4.85862138E-05  3.82102902E-05  5.96771457E-05  1.30576836E-04  1.98128298E-04  3.55919590E-04  5.18917281E-04
    1.05639826E-04  1.13521614E-04  1.05506876E-04  1.04572435E-04  1.55428052E-04  1.22194052E-04  1.62044362E-04  9.92826500E-05  1.96214812E-04  1.28965150E-04  1.53131261E-04  7.52261796E-05  7.45532898E-05  5.86155064E-05  6.72888015E-05  1.06524978E-04  1.57969364E-04  1.34747327E-04  9.69575804E-05  6.79914752E-05
    5.63136376E-05  8.84994940E-05  1.57331739E-04  3.26517074E-04  2.20545892E-04  4.67464649E-04  1.16824405E-04  1.25677247E-04  1.24448478E-04  1.24858965E-04  1.73602709E-04  2.40669138E-04  2.69209640E-04  3.13296447E-04  2.45252310E-04  1.68224864E-04  1.08518935E-04  7.79451722E-05  9.18822502E-05  5.90057806E-05
    8.90432862E-05  4.28951834E-05  4.37865874E-05  3.74366541E-05  9.28604609E-05  1.25007116E-04  1.53889949E-04  8.52946282E-05  4.97934761E-05  3.72844579E-05  4.11048502E-05  6.15343984E-05  7.00018129E-05  1.35070439E-04  1.68116719E-04  2.53151819E-04  1.98071323E-04  4.71578665E-04  3.74585517E-04  7.19008962E-04
         0.00139980       0.00101428  4.92489305E-04  4.59454348E-04  1.25330887E-04  8.37196020E-05  6.18984875E-05  3.11380004E-05  2.28911736E-05  1.47924123E-05  2.10934396E-05  1.72781271E-05  6.10642737E-05  8.72418798E-05  4.18022900E-05  4.14641834E-05  6.31926282E-05  4.96404680E-05  6.07128625E-05  4.46769462E-05
    6.00001962E-05  5.02788087E-05  3.16088162E-05  2.15298110E-05  2.55336956E-05  4.99601718E-05  3.54720249E-05  4.39082975E-05  4.59010809E-05  9.73574042E-05  1.20072614E-04  8.67767580E-05  1.41851237E-04  1.18606917E-04  4.91310685E-05  3.83185127E-05  4.51619122E-05  1.20789204E-04  1.91997196E-04  3.07548873E-04
    1.24477939E-04  8.95092409E-05  1.17586549E-04  9.82863013E-05  1.08611430E-04  1.37376104E-04  1.44872843E-04  1.49719796E-04  1.20914056E-04  1.87422846E-04  1.46661886E-04  1.52685798E-04  7.91003640E-05  8.20295026E-05  5.11614449E-05  7.86217562E-05  1.21318967E-04  2.02685319E-04  1.16411068E-04  9.45173225E-05
    4.75480586E-05  6.22741121E-05  7.50833363E-05  1.42091358E-04  2.75684548E-04  2.60123585E-04  4.71038030E-04  1.44055667E-04  1.36372120E-04  1.45104310E-04  1.20646808E-04  1.34529649E-04  1.99703092E-04  1.85232497E-04  3.36758820E-04  1.85614851E-04  1.78820117E-04  1.10329595E-04  9.31978610E-05  9.85324352E-05
    6.69645047E-05  8.51791436E-05  4.44257273E-05  4.87220425E-05  3.78424813E-05  8.80878301E-05  1.19296088E-04  1.55979616E-04  8.14219875E-05  4.91653607E-05  2.53330328E-05  3.68621791E-05  4.13793450E-05  7.23759863E-05  1.03996567E-04  1.86685285E-04  2.66233205E-04  2.41079436E-04  5.30145569E-04  4.04863038E-04
    7.35630454E-04       0.00146569       0.00121481  5.23871191E-04  5.55938822E-04  1.35785945E-04  9.70917988E-05  5.36896714E-05  2.90919993E-05  1.95939673E-05  1.55862289E-05  1.81614546E-05  1.69246778E-05  5.04016514E-05  7.68143065E-05  4.17429152E-05  3.67338428E-05  7.23375958E-05  4.64418683E-05  6.20148428E-05
    3.61347934E-05  6.89020944E-05  4.79568792E-05  3.81991792E-05  2.41950608E-05  3.98390987E-05  5.86847516E-05  4.43172576E-05  3.93493151E-05  4.84380110E-05  9.54765719E-05  1.14679026E-04  8.52239996E-05  1.27659218E-04  1.34984446E-04  3.90445197E-05  4.27142737E-05  3.76141327E-05  1.40327491E-04  1.77691367E-04
    1.67203937E-04  1.21326672E-04  1.05148528E-04  9.84183470E-05  1.03763219E-04  9.90469297E-05  1.15987256E-04  1.44788455E-04  1.41852708E-04  1.55461241E-04  2.11442962E-04  2.16609859E-04  1.48187165E-04  8.56873368E-05  7.16857995E-05  5.48740905E-05  8.11370068E-05  1.58492095E-04  1.77737728E-04  1.20046981E-04
    8.85419305E-05  4.94512646E-05  5.82040359E-05  6.81443659E-05  1.18197184E-04  2.29813828E-04  2.57103966E-04  3.56981411E-04  1.67154043E-04  1.34683422E-04  1.76249868E-04  1.13543492E-04  1.20669943E-04  1.57197800E-04  1.35570696E-04  2.76887493E-04  1.62251907E-04  1.91596018E-04  1.22436917E-04  1.23615836E-04
    1.07633157E-04  7.78959607E-05  8.14437137E-05  5.70910875E-05  4.10607472E-05  3.62285187E-05  5.93179365E-05  1.29056579E-04  1.50989399E-04  8.87534723E-05  4.40456173E-05  2.47317905E-05  4.42506405E-05  3.51515667E-05  6.24273455E-05  8.53803668E-05  1.94181705E-04  2.45913188E-04  2.90277000E-04  5.26390564E-04
    5.57502327E-04  7.32595620E-04       0.00148385       0.00103624  6.46246232E-04  5.37470034E-04  1.35709791E-04  8.76924854E-05  5.05727289E-05  3.39844271E-05  1.87220489E-05  1.77302305E-05  1.31236941E-05  1.73494526E-05  3.63253917E-05  6.89907687E-05  3.77148665E-05  3.73036375E-05  6.35442498E-05  5.36543265E-05
    5.86879169E-05  3.98140159E-05  6.41110507E-05  4.84408655E-05  4.51424425E-05  2.93383895E-05  5.21143381E-05  5.84399018E-05  5.78168112E-05  3.95044126E-05  6.02406649E-05  7.80043207E-05  1.25900484E-04  7.29453450E-05  1.03956563E-04  1.07882564E-04  3.80514368E-05  4.67438556E-05  4.31150269E-05  1.47160585E-04
    1.48864040E-04  1.93140950E-04  1.28274473E-04  1.18760188E-04  8.44130945E-05  1.23325242E-04  7.46477736E-05  8.93160812E-05  1.30057764E-04  1.51327995E-04  1.79962214E-04  2.75105390E-04  2.15534701E-04  1.40320466E-04  9.33360685E-05  6.89146020E-05  5.97807851E-05  7.47030191E-05  1.74001894E-04  1.28714015E-04
    1.26392503E-04  7.11975733E-05  5.00309002E-05  5.02680518E-05  7.09352877E-05  9.00313333E-05  1.76115944E-04  1.80934723E-04  2.44880632E-04  1.80812162E-04  1.42558671E-04  1.80913217E-04  1.02777340E-04  1.07645387E-04  1.03656657E-04  1.07377660E-04  1.64172025E-04  1.73986202E-04  1.59879947E-04  1.57874251E-04
    1.10142984E-04  1.09115709E-04  8.01878367E-05  9.12883605E-05  6.27938011E-05  3.72187775E-05  3.61811622E-05  4.74418643E-05  1.30568181E-04  1.27961237E-04  1.01805979E-04  5.13423751E-05  3.62000899E-05  4.58357166E-05  3.15239049E-05  4.25934208E-05  7.45673123E-05  1.33797569E-04  2.53477072E-04  3.17500146E-04
    6.16257674E-04  7.81606307E-04  6.80954143E-04       0.00144586  9.22197367E-04  6.76539432E-04  3.90656542E-04  1.38484787E-04  7.18626098E-05  5.23721077E-05  3.15372041E-05  1.71294256E-05  1.55235072E-05  1.29393604E-05  1.70873169E-05  2.97620283E-05  5.80108320E-05  3.36594768E-05  3.81372828E-05  5.78590961E-05
    7.38675686E-05  4.83334836E-05  4.83452762E-05  5.62656554E-05  5.36477025E-05  4.44550035E-05  3.15751187E-05  4.92197773E-05  6.68008646E-05  6.61624741E-05  4.45408968E-05  6.58965519E-05  8.56672737E-05  1.36362022E-04  5.70730064E-05  8.81918015E-05  9.09121663E-05  4.51091901E-05  4.05336534E-05  4.84099050E-05
    2.63346426E-04  1.53733185E-04  1.89556135E-04  1.43581330E-04  1.21382203E-04  7.80901473E-05  1.35193827E-04  6.18141686E-05  8.31579891E-05  1.19940805E-04  1.81079863E-04  1.70470676E-04  3.47006988E-04  1.70945683E-04  1.65484294E-04  8.61375041E-05  8.53056328E-05  6.06084007E-05  7.68674681E-05  1.62584392E-04
    9.82485324E-05  1.04043646E-04  5.69027241E-05  4.80232947E-05  4.30072142E-05  6.73058027E-05  5.42967822E-05  1.21956070E-04  1.08486140E-04  2.11990411E-04  1.42430911E-04  1.55243813E-04  1.51080704E-04  1.09159061E-04  7.49841220E-05  7.96666808E-05  7.97484716E-05  1.33646962E-04  1.98369260E-04  1.32035793E-04
    1.48621851E-04  9.36929339E-05  1.03491215E-04  7.53911286E-05  1.09054069E-04  6.44697186E-05  4.70262028E-05  3.62581711E-05  4.22245731E-05  9.95877052E-05  1.34937416E-04  1.19941837E-04  6.18073595E-05  4.73413831E-05  4.47902292E-05  3.10335786E-05  3.29758409E-05  6.93513274E-05  9.41051069E-05  3.35293661E-04
    3.51341755E-04  7.64503267E-04  8.03796190E-04  6.44581274E-04       0.00119735  9.90670373E-04  7.11983482E-04  3.62343701E-04  1.31859600E-04  6.37228772E-05  4.46913175E-05  2.42601235E-05  1.68220407E-05  1.30350581E-05  1.61407138E-05  1.50751453E-05  3.12365626E-05  4.29832667E-05  3.94041495E-05  3.38201443E-05
    5.47747902E-05  7.70547787E-05  4.53983513E-05  4.81564390E-05  5.27837810E-05  5.35963764E-05  4.31401457E-05  3.61432865E-05  5.16669618E-05  8.21901965E-05  6.66193303E-05  6.36968971E-05  6.77628820E-05  1.04927414E-04  1.23045706E-04  5.38239315E-05  6.88986133E-05  8.57880565E-05  4.09689743E-05  3.32050733E-05
    2.37859935E-04  2.55484944E-04  1.61356067E-04  1.65312729E-04  1.58631831E-04  9.49255477E-05  9.02449068E-05  1.26149320E-04  6.75956000E-05  7.45416603E-05  1.40281888E-04  1.84737594E-04  1.74692810E-04  3.21997692E-04  1.38332335E-04  1.78529031E-04  8.84204791E-05  9.88890167E-05  6.11728588E-05  8.55259020E-05
    1.30953545E-04  8.71946818E-05  7.36722277E-05  5.27057727E-05  3.68789087E-05  3.94731779E-05  4.65156855E-05  4.18508240E-05  9.12577405E-05  7.79348006E-05  1.82607941E-04  1.24997300E-04  1.86940912E-04  1.29820024E-04  9.68082889E-05  5.20389870E-05  6.68362464E-05  6.75873445E-05  1.26847657E-04  1.92291462E-04
    1.27474029E-04  1.14840952E-04  8.44908685E-05  8.88737685E-05  8.25919431E-05  1.37262374E-04  7.09656987E-05  6.48695832E-05  3.22365006E-05  4.80557565E-05  8.08983652E-05  1.76698901E-04  1.06647499E-04  7.62698982E-05  5.12382228E-05  6.16331273E-05  3.49453790E-05  3.52609198E-05  7.09858768E-05  1.21963653E-04
    4.38524891E-04  3.95987253E-04  7.30208495E-04  7.44599537E-04  6.48062680E-04  9.82260395E-04       0.00119015  6.74455059E-04  4.32248160E-04  1.05968426E-04  5.40132588E-05  2.80655682E-05  2.18963858E-05  1.41861485E-05  1.32387423E-05  1.95338968E-05  1.61846538E-05  3.43766575E-05  4.26329401E-05  4.26534178E-05
    3.30773052E-05  5.16514234E-05  5.99690410E-05  4.05924907E-05  3.51170988E-05  5.41807843E-05  5.01807282E-05  6.31565275E-05  5.10065070E-05  6.28148676E-05  9.20938514E-05  6.51861612E-05  8.46648951E-05  6.61774175E-05  1.06478194E-04  1.03863125E-04  6.30292938E-05  6.19327340E-05  9.13415095E-05  3.47590392E-05
    1.89897792E-04  2.29638407E-04  2.72234196E-04  1.54039778E-04  1.57612402E-04  1.50524264E-04  8.06455269E-05  8.82476720E-05  1.22060842E-04  8.33511272E-05  7.67016639E-05  1.67501022E-04  1.57534035E-04  1.69105322E-04  2.49578362E-04  1.32746603E-04  1.47958462E-04  9.99849259E-05  9.40852709E-05  7.04898641E-05
    8.50359466E-05  1.37573308E-04  9.57092255E-05  5.77117738E-05  4.42877641E-05  2.32239299E-05  3.12584086E-05  3.00517167E-05  3.65789684E-05  6.15221134E-05  7.61448004E-05  1.72604107E-04  1.54183227E-04  2.10376851E-04  1.22607269E-04  7.17914296E-05  4.23070978E-05  5.48136891E-05  6.06790530E-05  1.26591019E-04
    1.69994022E-04  1.41161497E-04  8.75631416E-05  9.83927030E-05  6.96383299E-05  9.23527022E-05  1.37622181E-04  7.79386252E-05  6.57156082E-05  4.01633006E-05  5.17059413E-05  9.51058542E-05  2.02376408E-04  1.16859048E-04  1.02902915E-04  6.64347585E-05  7.76353575E-05  3.63931730E-05  5.19388782E-05  8.99009832E-05
    1.72592014E-04  4.11778332E-04  4.59305826E-04  6.80008641E-04  8.30321496E-04  5.62382305E-04  7.83262423E-04       0.00134920  6.72007680E-04  4.37389172E-04  8.55288695E-05  4.84456401E-05  2.04493211E-05  2.10589974E-05  1.13897035E-05  1.47959053E-05  2.16371993E-05  2.02477160E-05  3.39566382E-05  4.86133455E-05
    4.79854499E-05  4.01406839E-05  4.24759921E-05  4.23810412E-05  3.08676564E-05  2.20516723E-05  6.75548646E-05  5.65982872E-05  1.15816176E-04  6.48183723E-05  8.54932134E-05  8.64316066E-05  8.06021395E-05  7.89637734E-05  6.45248825E-05  9.06050561E-05  1.41944299E-04  7.15817221E-05  5.82940819E-05  9.05318295E-05
    2.63690885E-04  2.29881998E-04  2.15148871E-04  2.87064027E-04  1.45671446E-04  1.65361826E-04  1.15499470E-04  8.82621868E-05  8.34663951E-05  1.40668825E-04  8.48502426E-05  8.37175541E-05  1.44424731E-04  1.39891593E-04  1.57146241E-04  1.92103069E-04  1.12347926E-04  1.20452035E-04  1.03450819E-04  6.90570359E-05
    8.51401223E-05  8.15976095E-05  1.67307122E-04  8.71973606E-05  4.39721269E-05  2.91721723E-05  1.84117014E-05  2.09117503E-05  2.11511748E-05  2.92159889E-05  5.51613344E-05  8.16708641E-05  1.67096550E-04  1.84295827E-04  1.67313070E-04  1.17288716E-04  5.02648057E-05  4.09120229E-05  3.78978062E-05  5.74831420E-05
    1.03825111E-04  1.77584133E-04  1.60586223E-04  7.79299907E-05  9.67155710E-05  6.54502741E-05  9.02240542E-05  1.20152580E-04  7.07362418E-05  7.29663762E-05  5.83115515E-05  5.50262425E-05  1.28678429E-04  2.06606885E-04  1.78277214E-04  1.21145882E-04  7.26609095E-05  7.95688348E-05  4.76953992E-05  6.98071229E-05
    8.90673695E-05  2.01357085E-04  3.71239577E-04  6.04016997E-04  6.21629627E-04  8.34158134E-04  4.20954578E-04  7.38172153E-04       0.00105983  6.11120229E-04  3.56426808E-04  8.90509821E-05  4.05372172E-05  2.23694240E-05  2.05035146E-05  1.06272649E-05  1.61742908E-05  2.02808453E-05  2.34266502E-05  3.15457928E-05
    6.36087136E-05  4.80685236E-05  5.09924817E-05  2.90847353E-05  3.15718771E-05  2.19140022E-05  2.02818012E-05  5.99497826E-05  6.66452042E-05  1.32657294E-04  9.19236199E-05  9.73322928E-05  8.82552938E-05  7.91324757E-05  7.70237691E-05  8.22473489E-05  8.63478163E-05  1.72606127E-04  5.89298487E-05  5.51339802E-05
    2.78050950E-04  2.48322242E-04  2.13394570E-04  2.53384800E-04  2.75483424E-04  1.76870442E-04  1.95819674E-04  1.26438823E-04  1.15438268E-04  7.75302979E-05  1.61203017E-04  7.53737774E-05  8.34146437E-05  1.10398315E-04  1.28204584E-04  1.28535809E-04  1.70930025E-04  1.02733292E-04  1.22323933E-04  1.04150217E-04
    6.46809074E-05  9.31990302E-05  7.87342978E-05  1.60808337E-04  6.34538049E-05  3.63493989E-05  2.09592177E-05  1.70434483E-05  1.26123275E-05  1.87607404E-05  2.15200203E-05  5.87821834E-05  6.87400064E-05  1.48714721E-04  1.73404142E-04  1.68519365E-04  1.17147243E-04  4.24047856E-05  3.96111271E-05  3.24675380E-05
    6.06788121E-05  8.74182274E-05  1.70322810E-04  1.36791786E-04  8.98869904E-05  8.23608953E-05  7.47039419E-05  7.43764926E-05  1.27958163E-04  7.26279389E-05  9.18406692E-05  6.61719638E-05  5.50446279E-05  1.59372154E-04  2.15762524E-04  2.22171592E-04  1.21015204E-04  8.07001092E-05  8.01823415E-05  6.30016318E-05
    5.78600253E-05  8.25534617E-05  1.77464454E-04  4.26946378E-04  5.71099146E-04  7.00115272E-04  7.43416939E-04  4.29014667E-04  6.72257815E-04  8.31714211E-04  5.31806587E-04  2.83944430E-04  9.91441001E-05  3.53552214E-05  2.72334519E-05  1.99118174E-05  1.22030148E-05  1.48055089E-05  1.99074776E-05  1.97772251E-05
    2.84981599E-05  6.14710379E-05  5.05420473E-05  4.79071370E-05  2.37503029E-05  2.52782107E-05  1.78209787E-05  1.73732752E-05  4.69959849E-05  7.29233424E-05  1.34602155E-04  1.37399132E-04  9.82348303E-05  9.17662494E-05  8.36119709E-05  8.78511763E-05  9.17911653E-05  8.50668805E-05  1.65334922E-04  4.93104460E-05
    2.66138740E-04  2.19109705E-04  2.57715391E-04  1.92938900E-04  3.29486663E-04  2.60847960E-04  2.91098537E-04  2.41966720E-04  1.73381729E-04  1.49130261E-04  9.55318463E-05  1.67826107E-04  7.51653162E-05  7.59853181E-05  7.91454811E-05  1.08948683E-04  1.01672517E-04  1.77310935E-04  9.85695071E-05  1.45355820E-04
    9.17004688E-05  7.84267487E-05  8.61739898E-05  8.36786326E-05  1.04384850E-04  5.82033157E-05  3.09546958E-05  1.95272340E-05  1.57936771E-05  1.03945791E-05  1.66258643E-05  1.88174200E-05  5.48584882E-05  5.11722653E-05  1.34091255E-04  1.54978262E-04  1.78124764E-04  1.03990207E-04  5.39741706E-05  4.22926542E-05
    3.78888748E-05  4.92362786E-05  7.04918104E-05  1.21970101E-04  1.33609204E-04  9.28220637E-05  6.95404422E-05  9.87238947E-05  7.74324807E-05  1.76001289E-04  8.34927354E-05  1.04512148E-04  6.18009236E-05  6.01843730E-05  1.45226263E-04  2.04051350E-04  2.12873742E-04  1.49500483E-04  8.84779159E-05  9.64860889E-05
    7.01113572E-05  5.26837214E-05  8.08303853E-05  1.42331893E-04  3.56432862E-04  4.36642761E-04  9.54248769E-04  7.00225884E-04  5.58603385E-04  5.50227238E-04  7.11624137E-04  4.45582882E-04  2.42320319E-04  8.66874142E-05  3.40572196E-05  3.16755395E-05  2.50170683E-05  1.41817351E-05  1.39498232E-05  1.98977921E-05
    1.60832859E-05  3.12794049E-05  4.98794037E-05  5.35814500E-05  3.71231101E-05  2.28281565E-05  1.82537197E-05  1.62206523E-05  1.45875993E-05  4.06205085E-05  8.21776556E-05  1.41579543E-04  1.71415120E-04  8.66516219E-05  9.14018021E-05  8.33590152E-05  1.15684926E-04  9.92288110E-05  1.07895360E-04  1.36218873E-04
    3.17826914E-04  2.15758012E-04  2.24388135E-04  2.50065241E-04  1.95022719E-04  4.28857373E-04  3.41541410E-04  3.80692630E-04  2.84303757E-04  2.14442921E-04  1.83425748E-04  1.38597772E-04  1.53597348E-04  8.67122277E-05  5.12277828E-05  6.88046703E-05  7.11497302E-05  9.50402056E-05  1.46486593E-04  9.55678691E-05
    1.48284988E-04  1.17644491E-04  9.23649541E-05  7.18303376E-05  7.41778751E-05  7.65935573E-05  5.81671604E-05  2.80657636E-05  1.71673925E-05  1.38578586E-05  1.06295715E-05  1.40613120E-05  2.01247494E-05  5.13994739E-05  5.09913752E-05  1.06971398E-04  1.32585818E-04  1.82027163E-04  9.22603570E-05  7.38064514E-05
    4.23766335E-05  4.29576462E-05  4.14790477E-05  6.28907330E-05  8.04373619E-05  1.35406331E-04  7.70829653E-05  6.81887161E-05  1.21853774E-04  1.18048831E-04  2.09283480E-04  9.45602041E-05  1.09768690E-04  7.03499907E-05  7.57319929E-05  1.14173537E-04  1.94640049E-04  1.78002907E-04  2.20672357E-04  8.46470309E-05
    1.22231445E-04  8.49003663E-05  6.47897007E-05  6.58874813E-05  1.11006560E-04  2.76257002E-04  4.21552008E-04       0.00103838  6.54702525E-04  6.55627266E-04  6.21359154E-04  7.87306008E-04  3.33784173E-04  2.14156525E-04  7.54402256E-05  4.69957891E-05  3.36141047E-05  4.04091908E-05  1.30800362E-05  1.50560514E-05
    1.95513091E-05  1.58265617E-05  3.18784904E-05  4.56218085E-05  5.33975656E-05  3.17021357E-05  2.38621443E-05  1.44051523E-05  1.54291993E-05  1.33230381E-05  4.60222111E-05  7.46632365E-05  1.72712226E-04  1.68690273E-04  8.88258082E-05  7.65300027E-05  9.17095858E-05  1.22781852E-04  1.27306559E-04  1.34486884E-04
    3.19406973E-04  2.76148139E-04  1.77644224E-04  2.20949252E-04  2.37740129E-04  2.50499317E-04  4.85901069E-04  4.42073900E-04  3.53755609E-04  3.15647607E-04  2.18453485E-04  2.35404963E-04  1.32717127E-04  1.23869085E-04  8.24966819E-05  3.68029368E-05  5.76800909E-05  4.74177067E-05  7.68744545E-05  1.10482119E-04
    1.08548918E-04  1.50832003E-04  1.42957179E-04  8.51217998E-05  7.08156589E-05  7.20597227E-05  7.08803554E-05  4.95235211E-05  2.14818326E-05  1.39712946E-05  1.11343969E-05  1.06160910E-05  1.10790276E-05  2.71404769E-05  4.52617972E-05  5.68700741E-05  7.24159736E-05  1.24318300E-04  1.38735248E-04  9.19434239E-05
    6.91835589E-05  4.50227276E-05  4.40681836E-05  4.65829019E-05  5.19641678E-05  6.26840146E-05  1.19451940E-04  6.58637279E-05  8.37900129E-05  1.38558475E-04  1.51135099E-04  1.76025462E-04  1.34511664E-04  1.20147368E-04  1.02835346E-04  7.64311444E-05  1.04782228E-04  1.64090185E-04  1.69992201E-04  2.17827368E-04
    8.59964870E-05  1.70536197E-04  1.17308357E-04  7.85010861E-05  5.79905768E-05  1.00635536E-04  2.11583955E-04  3.82286031E-04  8.40713478E-04  7.33407319E-04  7.17249502E-04  7.51138666E-04  6.65848296E-04  3.19512872E-04  2.25507057E-04  8.41907256E-05  6.55991140E-05  3.51335748E-05  5.30366349E-05  1.15308621E-05
    1.61649365E-05  1.85666372E-05  1.77954273E-05  3.05554157E-05  5.34548086E-05  5.21958116E-05  3.34221680E-05  1.78221985E-05  1.17049217E-05  1.21177434E-05  1.27423720E-05  4.14492174E-05  6.36091912E-05  1.98281725E-04  1.47453054E-04  9.41225592E-05  6.10639987E-05  1.08574723E-04  1.24931258E-04  1.37782317E-04
    4.29918912E-04  2.94208041E-04  2.02170987E-04  1.49315075E-04  2.02467676E-04  2.45362888E-04  3.24419010E-04  5.43016583E-04  6.45766192E-04  3.19288043E-04  3.50257822E-04  1.78166996E-04  2.15039919E-04  9.49152065E-05  1.09534799E-04  6.64552469E-05  3.60103023E-05  4.59191940E-05  3.95001544E-05  6.03601619E-05
    1.10982488E-04  1.07669512E-04  1.44586479E-04  1.49789129E-04  7.60185297E-05  8.63850768E-05  6.83744722E-05  7.82121183E-05  3.60094011E-05  2.29009802E-05  9.85053532E-06  9.83165759E-06  9.25345764E-06  1.04677402E-05  2.84389487E-05  4.79752120E-05  5.14488460E-05  6.69770048E-05  1.17964919E-04  1.19922086E-04
    7.96239754E-05  5.74982691E-05  5.40228012E-05  4.29613837E-05  5.56943159E-05  3.74929111E-05  5.80818165E-05  1.13134964E-04  7.64862072E-05  8.49782199E-05  1.43526202E-04  1.63357704E-04  1.78169233E-04  1.52720225E-04  1.22701555E-04  1.26091004E-04  9.42069660E-05  1.08868788E-04  1.20310416E-04  1.50087296E-04
    1.70977413E-04  1.10084051E-04  1.81479338E-04  1.65539588E-04  9.61311858E-05  6.29537281E-05  9.78022778E-05  1.69419838E-04  3.56771856E-04  7.45826802E-04  9.02576852E-04  6.34435571E-04  8.85186124E-04  5.70962031E-04  3.74372604E-04  2.42182986E-04  1.17052729E-04  6.98166420E-05  3.81962545E-05  4.70656877E-05
    1.25825415E-05  1.30569980E-05  1.97351616E-05  1.65846579E-05  3.24945474E-05  7.05846686E-05  4.73389264E-05  3.29529830E-05  1.37494953E-05  1.07392269E-05  8.27209930E-06  1.13096375E-05  2.83357366E-05  5.47192086E-05  1.80157424E-04  1.37318445E-04  8.99031415E-05  6.51284105E-05  1.15611896E-04  1.17405204E-04
         0.00118004  4.17591680E-04  2.95404773E-04  1.46810409E-04  1.37183635E-04  1.67472602E-04  2.96296506E-04  3.17793100E-04  7.12288784E-04  8.48129276E-04  3.55223707E-04  2.82111018E-04  1.52393300E-04  1.64355437E-04  7.70105660E-05  9.71334924E-05  5.93586189E-05  3.83364112E-05  3.55089599E-05  3.93245220E-05
    4.76866659E-05  1.32076004E-04  1.05670362E-04  1.48625201E-04  1.28940171E-04  8.63239581E-05  8.16600668E-05  6.94436750E-05  8.01572970E-05  3.78259894E-05  2.48694707E-05  8.46437475E-06  9.08418959E-06  8.16679336E-06  1.00393750E-05  2.53393430E-05  4.99197546E-05  4.75203674E-05  8.96932239E-05  1.03211286E-04
    1.15200540E-04  7.57446726E-05  5.25032998E-05  5.95460631E-05  4.19319222E-05  5.81028135E-05  3.18084649E-05  6.34053915E-05  1.07758797E-04  9.53316309E-05  8.63220734E-05  1.68489174E-04  1.37501314E-04  1.83805510E-04  1.17199920E-04  1.34447513E-04  1.50792124E-04  1.31596864E-04  9.43997467E-05  1.05710958E-04
    1.46486069E-04  1.57980510E-04  1.36567035E-04  1.64036634E-04  2.40712479E-04  1.23750905E-04  8.08907612E-05  7.53505015E-05  1.71408553E-04  3.27928371E-04  8.97916295E-04  8.48153353E-04  6.82600226E-04  8.89773835E-04  6.15130190E-04  3.77764022E-04  2.62831834E-04  1.49362134E-04  8.20834240E-05  4.27128105E-05
    4.05199987E-05  1.47670245E-05  9.80878460E-06  2.17741502E-05  1.41237737E-05  3.38349071E-05  6.92540623E-05  4.45567957E-05  3.26574646E-05  1.41708213E-05  9.11388255E-06  6.12118500E-06  8.35089147E-06  1.97278720E-05  4.72906069E-05  1.31993614E-04  1.38256099E-04  8.86223609E-05  8.68580069E-05  1.05506504E-04
         0.00180527       0.00161037  4.44481748E-04  2.52863041E-04  1.40156970E-04  1.24613239E-04  1.52174503E-04  2.89672276E-04  2.79188573E-04  9.34624704E-04  8.70852575E-04  4.05274440E-04  1.97828324E-04  1.52625903E-04  1.19667365E-04  7.83409399E-05  7.18507108E-05  5.45783371E-05  3.33176070E-05  2.79328273E-05
    3.50872712E-05  4.29212492E-05  1.49587078E-04  1.17397971E-04  1.58911378E-04  1.07770064E-04  8.40421940E-05  7.03752862E-05  7.88502049E-05  7.44080103E-05  4.58214308E-05  2.27176126E-05  1.02698432E-05  9.18165031E-06  8.25613755E-06  8.89343372E-06  2.42562498E-05  5.94805816E-05  4.73005941E-05  1.14235893E-04
    7.71091416E-05  1.22031391E-04  6.91135586E-05  5.65187793E-05  5.48254348E-05  4.63307831E-05  4.45526221E-05  3.15167480E-05  5.15327867E-05  1.28427714E-04  1.03253345E-04  1.02625671E-04  1.89433685E-04  1.30014393E-04  1.87522385E-04  9.92698094E-05  1.61814118E-04  1.61771828E-04  1.66172022E-04  8.53966870E-05
    1.16280981E-04  1.41407272E-04  1.51246226E-04  1.26408952E-04  1.99202699E-04  3.30772909E-04  1.71033949E-04  7.67035449E-05  6.98937948E-05  1.94038408E-04  3.46109043E-04       0.00110985  7.77772232E-04  8.70754585E-04  7.74188367E-04  6.34964062E-04  3.08117324E-04  3.24234759E-04  1.67179375E-04  8.32061325E-05
    4.29139736E-05  3.88266810E-05  1.72508428E-05  8.93619745E-06  2.06561227E-05  1.23302258E-05  3.89081282E-05  6.78040978E-05  4.93149987E-05  2.95905033E-05  1.67081869E-05  6.78628777E-06  6.91483066E-06  6.10525191E-06  1.64269336E-05  3.18338210E-05  1.06098034E-04  1.34868136E-04  1.06511969E-04  1.07607827E-04
         0.00383063       0.00206106       0.00161791  5.38664254E-04  2.11218266E-04  1.64979224E-04  8.49581736E-05  1.47103798E-04  2.34583839E-04  2.84053714E-04  9.43153340E-04  9.08426402E-04  3.61126820E-04  1.50103636E-04  1.50191808E-04  1.12236447E-04  7.60879468E-05  5.25412252E-05  4.65787104E-05  2.21772964E-05
    2.29298256E-05  2.51978893E-05  4.62230755E-05  1.52429813E-04  1.60458587E-04  1.37921241E-04  1.04945196E-04  9.19690363E-05  6.73163533E-05  7.06361240E-05  6.33287844E-05  5.13680120E-05  2.41192727E-05  1.39160211E-05  7.67451334E-06  8.31810223E-06  8.51382793E-06  2.58342602E-05  4.77999048E-05  4.12200653E-05
    7.74230569E-05  5.91056985E-05  1.05148888E-04  7.38770966E-05  5.70512886E-05  5.53946379E-05  5.26913358E-05  3.07839796E-05  2.88362998E-05  3.67969967E-05  1.40726029E-04  1.07890293E-04  1.43465791E-04  1.79193519E-04  1.49813516E-04  1.93811752E-04  9.80470597E-05  1.38960907E-04  1.70687084E-04  1.89911245E-04
    9.26015867E-05  1.10749159E-04  1.07743444E-04  1.37974223E-04  1.31342024E-04  2.72099288E-04  3.31166931E-04  2.30705214E-04  7.16997781E-05  7.44344911E-05  1.83171591E-04  3.70885472E-04       0.00117572  8.38386567E-04  9.51840681E-04  7.08780211E-04  6.38180247E-04  2.48256679E-04  3.00778455E-04  1.28664095E-04
    8.86786172E-05  3.67083184E-05  4.15925338E-05  1.66013049E-05  1.13937914E-05  1.65690269E-05  1.56823133E-05  3.42145340E-05  6.64910397E-05  4.41558643E-05  2.60261894E-05  1.77587663E-05  7.61531080E-06  7.87409644E-06  5.00660428E-06  1.36855452E-05  2.59341502E-05  9.10157531E-05  1.08773237E-04  1.13704667E-04
         0.00280537       0.00371261       0.00177268       0.00167462  6.33638951E-04  1.93777275E-04  1.52816713E-04  7.40506613E-05  1.41601674E-04  2.11428118E-04  2.84302569E-04  7.52002473E-04  8.31305475E-04  2.82329215E-04  1.38325332E-04  1.34156140E-04  1.30597575E-04  6.28796934E-05  4.63960619E-05  3.62079778E-05
    1.81707828E-05  1.80521204E-05  1.97408363E-05  4.92994699E-05  1.27861240E-04  2.02143585E-04  1.22734494E-04  1.19465641E-04  9.73156243E-05  7.09854434E-05  5.69849374E-05  6.37849949E-05  5.22749729E-05  2.56684921E-05  1.36659373E-05  8.06303952E-06  9.38728097E-06  9.50671726E-06  2.34632589E-05  3.05025239E-05
    2.92792286E-05  4.70708812E-05  5.05871865E-05  6.62768054E-05  8.39526022E-05  4.98366056E-05  6.11562930E-05  4.59616799E-05  2.39075638E-05  2.28965774E-05  3.37066426E-05  1.23545574E-04  1.08083189E-04  1.52741455E-04  1.90217516E-04  1.82422381E-04  1.68993835E-04  1.01455333E-04  1.20059579E-04  2.24912098E-04
    1.87175254E-04  8.96117040E-05  7.05043335E-05  1.03641414E-04  1.32155399E-04  1.49046416E-04  3.21450618E-04  3.49166740E-04  2.91343701E-04  7.36900423E-05  7.14247110E-05  1.54391979E-04  3.76207727E-04       0.00108566  8.48420267E-04  8.06840012E-04  7.83995696E-04  4.64262806E-04  2.26702326E-04  2.12051802E-04
    1.13921706E-04  7.61268830E-05  3.34291570E-05  3.81450165E-05  1.70105057E-05  1.43659342E-05  1.44394777E-05  2.01309426E-05  3.08515662E-05  5.80368562E-05  3.29820054E-05  2.44414955E-05  1.95468765E-05  9.46259154E-06  8.09215711E-06  5.04123165E-06  1.17066203E-05  2.47680544E-05  6.89540514E-05  8.04642498E-05
         0.00179965       0.00189620       0.00348761       0.00182830       0.00187005  5.98909438E-04  1.67311562E-04  1.26176873E-04  8.20313017E-05  1.26954917E-04  2.18818656E-04  2.45052277E-04  6.21046532E-04  7.99805196E-04  2.13570146E-04  1.30616121E-04  1.05779267E-04  1.47369070E-04  5.00470286E-05  4.85999933E-05
    2.50723863E-05  1.84887572E-05  1.47604172E-05  2.19481181E-05  4.32642960E-05  1.32029272E-04  1.99703278E-04  1.41081946E-04  1.28178648E-04  1.31187377E-04  7.66327371E-05  5.66963437E-05  7.12274514E-05  4.15761129E-05  2.62720036E-05  1.15511084E-05  9.22674577E-06  9.40904894E-06  1.08995558E-05  1.76876012E-05