# File generated by Flopy version 3.5.0 on 03/06/2024 at 10:48:00.
BEGIN griddata
  strt
    INTERNAL  FACTOR  1.0
        15.00000000      15.00000000      15.00000000      15.00000000      15.00000000      15.00000000      15.00000000      15.00000000      15.00000000      15.00000000      15.00000000      15.00000000      15.00000000      15.00000000      15.00000000      15.00000000      15.00000000      15.00000000      15.00000000      15.00000000
        15.00000000      15.00000000      15.00000000      15.00000000      15.00000000      15.00000000      15.00000000      15.00000000      15.00000000      15.00000000      15.00000000      15.00000000      15.00000000      15.00000000      15.00000000      15.00000000      15.00000000      15.00000000      15.00000000      15.00000000
        15.00000000      15.00000000      15.00000000      15.00000000      15.00000000      15.00000000      15.00000000      15.00000000      15.00000000      15.00000000      15.00000000      15.00000000      15.00000000      15.00000000      15.00000000      15.00000000      15.00000000      15.00000000      15.00000000      15.00000000
        15.00000000      15.00000000      15.00000000      15.00000000      15.00000000      15.00000000      15.00000000      15.00000000      15.00000000      15.00000000      15.00000000      15.00000000      15.00000000      15.00000000      15.00000000      15.00000000      15.00000000      15.00000000      15.00000000      15.00000000
        15.00000000      15.00000000      15.00000000      15.00000000      15.00000000      15.00000000      15.00000000      15.00000000      15.00000000      15.00000000      15.00000000      15.00000000      15.00000000      15.00000000      15.00000000      15.00000000      15.00000000      15.00000000      15.00000000      15.00000000
        15.38287786      15.36644728      15.36114512      15.35421172      15.34292136      15.33542048      15.32434004      15.30985636      15.28905808      15.25676928      15.22463430      15.20720785      15.19738755      15.18424944      15.16838816      15.15417772      15.14011539      15.12518430      15.11325945      15.10250432
        15.09295895      15.08680838      15.08252721      15.07724289      15.07533121      15.07413091      15.07043093      15.06446826      15.05943522      15.05638071      15.05514750      15.05304955      15.05129569      15.04942941      15.04769879      15.04663370      15.04614989      15.04794657      15.05184130      15.05449742
        15.05495995      15.05511847      15.05595033      15.05876364      15.06108922      15.06311829      15.06378438      15.06304617      15.06152348      15.06106018      15.06116180      15.06286034      15.06446590      15.06362878      15.06080343      15.05727020      15.05354539      15.05082836      15.04894793      15.04795342
        15.04712218      15.04574720      15.04547206      15.04618601      15.04775999      15.04965160      15.05134424      15.05257697      15.05410716      15.05489848      15.05536593      15.05589809      15.05681396      15.05709016      15.05616546      15.05497181      15.05567582      15.05688316      15.05816468      15.05974776
        15.06126499      15.06375805      15.06664007      15.06853248      15.06972840      15.07055197      15.07050344      15.06936989      15.06711820      15.06728796      15.06897192      15.06932616      15.06802944      15.06684659      15.06626632      15.06815796      15.07109561      15.07351840      15.07527637      15.07671607
        15.72034016      15.71321722      15.70299409      15.69168155      15.67432251      15.65740994      15.63135364      15.60170223      15.56937513      15.51829927      15.45577218      15.40963066      15.38089080      15.35475738      15.32705328      15.30001917      15.27307767      15.24559010      15.22337959      15.20376219
        15.18463257      15.17163778      15.16403746      15.15477654      15.14718847      15.14130456      15.13560067      15.12862059      15.11999720      15.11155757      15.10638042      15.10261690      15.09928573      15.09446858      15.08939344      15.08749422      15.08722543      15.08898036      15.09340458      15.09887005
        15.10314541      15.10556516      15.10557763      15.10698640      15.10924788      15.11211404      15.11311528      15.11201170      15.11018553      15.10978685      15.10937796      15.11033482      15.11221112      15.11155178      15.10691642      15.09913381      15.09076251      15.08421329      15.08023841      15.07820305
        15.07744552      15.07632193      15.07607319      15.07592459      15.07640947      15.07832032      15.08126894      15.08336415      15.08507703      15.08641141      15.08837199      15.09019824      15.09137840      15.09198161      15.09172430      15.09038431      15.08959613      15.08955656      15.09101413      15.09446205
        15.09760210      15.10050907      15.10389984      15.10791103      15.11125889      15.11285092      15.11290807      15.11333859      15.11255905      15.11226056      15.11269399      15.11350832      15.11450110      15.11503165      15.11383624      15.11497354      15.11967128      15.12545233      15.12943544      15.13070869
        16.04055347      16.04435470      16.04111947      16.02778801      16.00118101      15.97355021      15.93530491      15.88932056      15.84531288      15.78332912      15.70051319      15.62492776      15.57072443      15.52544694      15.48344431      15.44561456      15.40940068      15.37019095      15.33612628      15.30839961
        15.28280040      15.26428298      15.25254388      15.23932963      15.22726833      15.21745032      15.20697226      15.19521830      15.18322848      15.17260580      15.16399315      15.15495086      15.14735071      15.14193306      15.13699082      15.13418952      15.13170555      15.13217129      15.13715703      15.14398568
        15.14868944      15.15166184      15.15324227      15.15564890      15.15680387      15.15780666      15.15945044      15.16090268      15.16010739      15.15842995      15.15578424      15.15497159      15.15664035      15.15559133      15.14983753      15.14031829      15.13042703      15.12176149      15.11453508      15.11005430
        15.10944760      15.10876231      15.10744169      15.10516707      15.10430349      15.10654251      15.11062553      15.11390902      15.11691539      15.11976829      15.12239448      15.12366647      15.12373291      15.12437045      15.12509400      15.12405949      15.12220138      15.12138026      15.12276353      15.12676523
        15.13030354      15.13356761      15.13724468      15.14158766      15.14518110      15.14770341      15.14967515      15.15259333      15.15394530      15.15440593      15.15524650      15.15657392      15.15807083      15.15944283      15.15923865      15.16023760      15.16409530      15.16917318      15.17385401      15.17632918
        16.34418943      16.34934536      16.35666714      16.35384053      16.32773995      16.29009680      16.23913659      16.17749224      16.12268207      16.05349516      15.95663528      15.85455330      15.77165634      15.70298135      15.64177366      15.59040056      15.54560037      15.49863104      15.45504309      15.41929137
        15.38559780      15.36007609      15.34484634      15.32976169      15.31328521      15.29808837      15.28284944      15.26794994      15.25262998      15.23867971      15.22725881      15.21544405      15.20417960      15.19508949      15.18671077      15.18278366      15.18048409      15.17966771      15.18189830      15.18725631
        15.19284667      15.19773657      15.19996045      15.20151749      15.20253591      15.20372446      15.20540424      15.20656464      15.20643722      15.20630589      15.20453522      15.20167473      15.20058258      15.19889140      15.19472543      15.18489658      15.17171610      15.15935171      15.14967276      15.14330259
        15.14103682      15.13948302      15.13900370      15.13853097      15.13767453      15.13807037      15.14138830      15.14643978      15.15140189      15.15436630      15.15560538      15.15638452      15.15653832      15.15684555      15.15675555      15.15587975      15.15497522      15.15417397      15.15306686      15.15448249
        15.15782913      15.16259872      15.16701201      15.17121569      15.17572784      15.18096665      15.18565139      15.18978805      15.19223988      15.19393156      15.19570063      15.19651917      15.19700450      15.19881618      15.20095091      15.20320783      15.20609950      15.20952820      15.21377532      15.21606211
        16.65092797      16.64975478      16.65311359      16.65570927      16.64257873      16.61126579      16.55397409      16.46912756      16.39583148      16.32215678      16.22059454      16.09700163      15.98387510      15.89033701      15.80705747      15.73692808      15.67911277      15.62376753      15.57319755      15.53125577
        15.49034469      15.45604997      15.43697601      15.42282641      15.40613474      15.38759456      15.36739236      15.34844489      15.32866935      15.30954924      15.29416101      15.28013048      15.26615366      15.25358239      15.24108037      15.23484636      15.23251064      15.23066702      15.23003209      15.23261943
        15.23667425      15.24088580      15.24326450      15.24554445      15.24789953      15.24927647      15.25059601      15.25166109      15.25213238      15.25246480      15.25098397      15.24752805      15.24549378      15.24291086      15.23846422      15.22889342      15.21520078      15.20094726      15.18779055      15.17720274
        15.17260668      15.17157149      15.17240085      15.17291736      15.17234542      15.17279556      15.17586967      15.18025804      15.18454939      15.18821716      15.19068833      15.19165992      15.18979974      15.18804036      15.18783328      15.18778695      15.18619292      15.18351089      15.18099116      15.18191539
        15.18488257      15.18906223      15.19409313      15.20037713      15.20670854      15.21175581      15.21557595      15.22048066      15.22602401      15.23006731      15.23259869      15.23417691      15.23640805      15.23919314      15.24074557      15.24131025      15.24321987      15.24591601      15.24886383      15.24972583
        16.95597408      16.94637990      16.94492372      16.94710049      16.93701865      16.91242056      16.86476656      16.77402721      16.67555870      16.58425176      16.47700682      16.34530961      16.20808152      16.08766048      15.97826159      15.88516717      15.81128657      15.74421751      15.68394251      15.63653470
        15.59405995      15.55522333      15.53001911      15.51407437      15.49939310      15.48318128      15.46104534      15.43521456      15.40819257      15.38509207      15.36792882      15.35160534      15.33415616      15.31902557      15.30312396      15.29101996      15.28355831      15.27899922      15.27772334      15.27909526
        15.28120403      15.28417826      15.28745421      15.29108867      15.29389924      15.29383534      15.29381773      15.29448060      15.29500139      15.29549345      15.29547430      15.29395584      15.29274752      15.28939715      15.28344728      15.27263578      15.25740419      15.24096034      15.22504533      15.21171619
        15.20560601      15.20507941      15.20703225      15.20966603      15.21110782      15.21168264      15.21270988      15.21497263      15.21837887      15.22223516      15.22466589      15.22562813      15.22330447      15.22012805      15.21796747      15.21655077      15.21503836      15.21346357      15.21101553      15.21012356
        15.21138344      15.21520729      15.22095396      15.22734327      15.23353762      15.23938793      15.24489712      15.25057801      15.25651661      15.26177724      15.26678583      15.27008016      15.27148549      15.27213372      15.27334497      15.27500419      15.27728880      15.27926994      15.28218058      15.28418720
        17.27801015      17.25520429      17.23802458      17.23367294      17.22318437      17.19991750      17.15758989      17.07047201      16.95802404      16.84849640      16.72944907      16.58785436      16.43292778      16.28998796      16.15707132      16.03751645      15.94202005      15.85943820      15.78808826      15.73471948
        15.69222557      15.65266535      15.62415759      15.60675677      15.59238355      15.57711982      15.55670713      15.53166427      15.50012585      15.46675980      15.44170094      15.42350993      15.40589333      15.38792234      15.36610230      15.34793561      15.33807345      15.33217641      15.32873139      15.32783203
        15.32930877      15.33172099      15.33244679      15.33214624      15.33401152      15.33570582      15.33680792      15.33666518      15.33663699      15.33845483      15.34078409      15.34033114      15.33806072      15.33379163      15.32781365      15.31659174      15.29873753      15.27948092      15.26274384      15.24936097
        15.24203703      15.24028322      15.24202340      15.24615840      15.24892463      15.24936162      15.24914124      15.25069381      15.25372813      15.25691727      15.25871546      15.26030751      15.25883077      15.25425298      15.24889903      15.24495722      15.24297510      15.24206074      15.23984954      15.23818631
        15.23888677      15.24224847      15.24741346      15.25312506      15.25976128      15.26663541      15.27244704      15.27710860      15.28259817      15.28878217      15.29522939      15.29990613      15.30273819      15.30436181      15.30564625      15.30659245      15.30802872      15.30975426      15.31248492      15.31405088
        17.60388525      17.57895139      17.54354322      17.51996843      17.49833868      17.47323892      17.43520800      17.35616229      17.23754967      17.11300674      16.98291106      16.83166107      16.65910570      16.49381605      16.34005788      16.19555348      16.07626811      15.97423005      15.88617634      15.82352955
        15.78317715      15.74896307      15.72054725      15.70077284      15.68533986      15.67078501      15.65186714      15.62766736      15.59543876      15.55573085      15.52135243      15.49624251      15.47578170      15.45787569      15.43574149      15.41226977      15.39544695      15.38454268      15.37915855      15.37722584
        15.37717703      15.37778828      15.37750015      15.37628349      15.37731699      15.37810261      15.37902388      15.37965160      15.37972630      15.38019924      15.38140846      15.38181724      15.38161096      15.37875240      15.37248807      15.36089836      15.34218217      15.32000743      15.29859771      15.28127101
        15.27423906      15.27459937      15.27711705      15.28096155      15.28449167      15.28778517      15.28996564      15.29101617      15.29164766      15.29308949      15.29393097      15.29450913      15.29184046      15.28589381      15.27981873      15.27529030      15.27227196      15.27066486      15.26981034      15.26970145
        15.26972277      15.26984153      15.27240619      15.27727835      15.28375316      15.29006355      15.29585119      15.30145556      15.30805860      15.31424929      15.32010675      15.32545671      15.33032148      15.33330374      15.33389358      15.33345520      15.33434956      15.33624820      15.33852081      15.33981546
        17.91527265      17.88900472      17.85098049      17.81922441      17.78126445      17.73988891      17.69875954      17.63105302      17.51664299      17.37719724      17.23036830      17.07100444      16.88830304      16.70281971      16.52915126      16.36282494      16.22011530      16.09591346      15.98258888      15.90207509
        15.86573534      15.84230168      15.81869298      15.79690160      15.77869883      15.76365060      15.74592601      15.72291434      15.69177993      15.64941929      15.60745736      15.57284423      15.54487055      15.52414353      15.50347242      15.47895103      15.45699343      15.44014143      15.43137418      15.42785071
        15.42641106      15.42621438      15.42542404      15.42220700      15.42026662      15.41910428      15.41958817      15.42084681      15.42118928      15.42135341      15.42271506      15.42427466      15.42514974      15.42365200      15.41866692      15.40765849      15.38572996      15.35580411      15.32492468      15.30071504
        15.29980446      15.30636377      15.31225358      15.31823737      15.32358515      15.32768628      15.32979010      15.33075797      15.33137075      15.33157864      15.32966469      15.32828746      15.32669557      15.32247799      15.31565705      15.30810081      15.30288432      15.30043982      15.29879615      15.29688066
        15.29572380      15.29573017      15.29826718      15.30183481      15.30679465      15.31335011      15.32071807      15.32662193      15.33136456      15.33586137      15.34160862      15.34757936      15.35248416      15.35578338      15.35790103      15.35899738      15.35920124      15.35893017      15.35965433      15.36140793
        18.22739043      18.19963623      18.15271157      18.11393497      18.07058749      18.01671929      17.95971851      17.88667183      17.77665176      17.63784131      17.48207933      17.31217401      17.11864038      16.91867741      16.73031861      16.54454309      16.37601647      16.22558568      16.07886704      15.96813194
        15.94105105      15.93295318      15.91948735      15.90028629      15.87939479      15.85947558      15.83865207      15.81579072      15.78791636      15.74456987      15.69417156      15.65069785      15.61678166      15.59169680      15.56892345      15.54384901      15.52134425      15.50081810      15.48556301      15.47681607
        15.47352240      15.47414718      15.47410730      15.46972064      15.46549668      15.46343486      15.46324941      15.46379359      15.46381479      15.46432065      15.46559048      15.46654471      15.46655223      15.46552870      15.46196321      15.45269506      15.42952103      15.39085118      15.34235360      15.29666558
        15.31590897      15.33648414      15.34937556      15.35788074      15.36362912      15.36761053      15.37028134      15.37198156      15.37300809      15.37300505      15.37006605      15.36676653      15.36388088      15.35881534      15.35133138      15.34219859      15.33449216      15.32928269      15.32590462      15.32381670
        15.32346233      15.32323681      15.32434119      15.32644364      15.33034365      15.33585213      15.34173871      15.34662033      15.35137580      15.35623081      15.36129657      15.36636351      15.37162180      15.37675884      15.38009600      15.38063698      15.37953780      15.37855386      15.37843341      15.37922167
        18.53002795      18.50088688      18.45012886      18.40359801      18.35407661      18.29252377      18.22453104      18.14389230      18.02974285      17.88795431      17.72873889      17.55811121      17.35917682      17.14070045      16.93386530      16.73358699      16.54650382      16.37567419      16.19805115      16.04870826
        16.03268990      16.03612655      16.02758453      16.00729794      15.98261891      15.95862389      15.93334623      15.90498146      15.87561830      15.83686446      15.78810594      15.73708926      15.69157640      15.65901632      15.63489041      15.60936669      15.58353833      15.55827787      15.53939889      15.52839577
        15.52181411      15.52008469      15.52145614      15.52074073      15.51717418      15.51153360      15.50706343      15.50673533      15.50766756      15.50820733      15.50832505      15.50894112      15.50953700      15.50873727      15.50412493      15.49474677      15.47341464      15.43116934      15.35882777      15.25805996
        15.32889494      15.37100021      15.39119505      15.40151060      15.40722114      15.41137424      15.41451105      15.41541941      15.41534824      15.41566634      15.41384106      15.40939715      15.40383058      15.39639137      15.38794225      15.37753817      15.36685597      15.35826848      15.35283724      15.35014039
        15.34959143      15.34878921      15.34945564      15.35136775      15.35375693      15.35677878      15.36098523      15.36594224      15.37094784      15.37514990      15.37903970      15.38367137      15.38871430      15.39319522      15.39600007      15.39728347      15.39741447      15.39675897      15.39579566      15.39624360
        18.83336954      18.79172853      18.73288554      18.68523965      18.63664793      18.57055160      18.49192291      18.40421357      18.28708424      18.13903253      17.96983650      17.79507036      17.59990059      17.37272701      17.14487621      16.92672652      16.72776958      16.55477052      16.38769812      16.24511241
        16.19127971      16.16797218      16.14583638      16.11826789      16.08775419      16.05877871      16.02951475      15.99642655      15.96302443      15.92402107      15.87683018      15.82500085      15.77245368      15.72961658      15.69772170      15.66934776      15.64342523      15.61749580      15.59522867      15.58095668
        15.57161913      15.56837850      15.56975544      15.56999506      15.56717538      15.56193138      15.55604046      15.55309012      15.55180858      15.55218501      15.55317351      15.55337713      15.55164267      15.54860884      15.54340512      15.53590933      15.51997224      15.48824745      15.44037561      15.38946268
        15.40699366      15.42695578      15.43955888      15.44816995      15.45411631      15.45722292      15.45881830      15.45942302      15.46047120      15.46148441      15.45948584      15.45353512      15.44639746      15.43702070      15.42549711      15.41146525      15.39859154      15.38957027      15.38296850      15.37752022
        15.37491821      15.37387552      15.37415313      15.37430539      15.37401872      15.37541917      15.37908843      15.38335109      15.38715193      15.39108018      15.39556738      15.40020584      15.40389356      15.40728655      15.41072770      15.41365495      15.41463133      15.41378879      15.41239620      15.41268647
        19.13356876      19.08990648      19.01408401      18.94822263      18.89954959      18.84265936      18.76563828      18.66971657      18.54572977      18.39289416      18.21439837      18.02812288      17.82847377      17.59836195      17.35907843      17.12430875      16.91064690      16.73502550      16.58199184      16.44896983
        16.36338017      16.30791905      16.26561351      16.22744479      16.18988790      16.15541335      16.12292829      16.08737383      16.05093173      16.01018071      15.96122839      15.90827371      15.85356790      15.80479211      15.76431748      15.72923570      15.70089774      15.67530895      15.65135260      15.63440468
        15.62231969      15.61652675      15.61651471      15.61756264      15.61689700      15.61362729      15.60727703      15.60172806      15.59753656      15.59571424      15.59572573      15.59542716      15.59363240      15.59066089      15.58503968      15.57814159      15.56779536      15.54875870      15.52093166      15.49236008
        15.48553683      15.48799590      15.49236277      15.49730540      15.50229189      15.50584533      15.50838902      15.50828702      15.50642691      15.50506657      15.50331299      15.49812006      15.48987606      15.47802418      15.46484903      15.45005614      15.43475079      15.42213804      15.41238777      15.40487418
        15.40028716      15.39636474      15.39358563      15.39317028      15.39378008      15.39501813      15.39677950      15.39960556      15.40339116      15.40746187      15.41063238      15.41347906      15.41660806      15.42056766      15.42422656      15.42685997      15.42857326      15.42988094      15.42981757      15.42930726
        19.40351679      19.36349265      19.28963678      19.21381733      19.15562804      19.09774245      19.02902903      18.93817555      18.81259837      18.64848316      18.45252301      18.25140778      18.04818869      17.81746851      17.56907332      17.32071913      17.09165376      16.90549050      16.75352010      16.62145987
        16.51827736      16.44065790      16.38056453      16.33064285      16.28529966      16.24684569      16.21338198      16.17625431      16.13529471      16.09188913      16.04274324      15.98874977      15.92956795      15.87611489      15.83289927      15.79463404      15.76114737      15.73165375      15.70625917      15.68969647
        15.67584848      15.66512400      15.66146706      15.66280127      15.66401031      15.66198427      15.65573117      15.64980757      15.64476966      15.64027203      15.63782047      15.63691592      15.63642216      15.63477949      15.62911295      15.62191286      15.61470107      15.60435759      15.58937306      15.57133240
        15.55841418      15.55171802      15.54862640      15.54794813      15.55015728      15.55290006      15.55518724      15.55428100      15.55057767      15.54760378      15.54603905      15.54223443      15.53540474      15.52414193      15.50960142      15.49142690      15.47094657      15.45374799      15.44067787      15.43016298
        15.42270862      15.41701532      15.41344933      15.41292718      15.41286782      15.41286684      15.41341805      15.41521098      15.41740286      15.41970000      15.42240855      15.42649662      15.43099526      15.43501863      15.43836420      15.44138891      15.44354066      15.44404663      15.44255000      15.44111462
        19.65325536      19.61867250      19.54907798      19.46851618      19.40382790      19.34050681      19.27244756      19.18671764      19.06913374      18.90737564      18.69736248      18.47258695      18.25536312      18.02430900      17.77541095      17.51721207      17.26884781      17.06357194      16.90216377      16.76597303
        16.65216200      16.55962523      16.48643330      16.42799227      16.37561735      16.33016592      16.29301326      16.25606792      16.21507977      16.16992999      16.11794340      16.06370861      16.00672849      15.95253396      15.90475452      15.86092219      15.82349054      15.79098763      15.75989709      15.73805436
        15.72322669      15.71268486      15.70765814      15.70665122      15.70712795      15.70749350      15.70454821      15.69869495      15.69110494      15.68392368      15.68083087      15.67975419      15.67898353      15.67834064      15.67557339      15.67065756      15.66448566      15.65638876      15.64727242      15.63630174
        15.62450215      15.61298797      15.60331645      15.59742550      15.59700840      15.59796659      15.59901712      15.59878885      15.59617359      15.59229329      15.58858300      15.58392308      15.57803049      15.56809379      15.55306385      15.53213828      15.50682042      15.48543156      15.46953960      15.45652402
        15.44704326      15.44009913      15.43437298      15.43080868      15.42835799      15.42755959      15.42793888      15.42899662      15.43054993      15.43335040      15.43711025      15.44124885      15.44472724      15.44772346      15.45055939      15.45256766      15.45311371      15.45279769      15.45222171      15.45192702
        19.86921039      19.84825605      19.79289904      19.71043659      19.63672990      19.56809485      19.50026955      19.41639932      19.30470400      19.15228136      18.94263917      18.69679153      18.45567382      18.21131158      17.96015066      17.70315372      17.44337388      17.21639285      17.03715555      16.89071809
        16.76796080      16.66448559      16.58062644      16.51495990      16.45680563      16.40483772      16.36338035      16.32639986      16.28729734      16.24464947      16.19470883      16.13934150      16.07975511      16.02332280      15.97408954      15.92717081      15.88469278      15.84814932      15.81334168      15.78820947
        15.77223232      15.76011463      15.75266490      15.74934068      15.74859513      15.74817265      15.74548214      15.74154703      15.73706866      15.73096017      15.72662915      15.72441779      15.72424740      15.72540207      15.72427108      15.71997513      15.71436244      15.70790868      15.70111433      15.69181410
        15.68072804      15.66962440      15.65874652      15.64832303      15.64213396      15.64021068      15.64106166      15.64152033      15.63820070      15.63263803      15.62805331      15.62356937      15.61743679      15.60732319      15.59346810      15.57501832      15.54811173      15.51967002      15.49720456      15.48117058
        15.47041283      15.46146868      15.45267285      15.44731715      15.44486156      15.44387893      15.44326169      15.44368167      15.44565593      15.44830094      15.45026339      15.45228443      15.45506632      15.45801481      15.46006010      15.46073849      15.46092270      15.46132747      15.46131861      15.46052579
        20.06379668      20.04495188      20.00545292      19.93841013      19.86341276      19.78093890      19.70294012      19.62018480      19.51548724      19.37251336      19.17031741      18.91301901      18.64992096      18.38742186      18.12209674      17.86191144      17.60104953      17.36107203      17.16156430      16.99867516
        16.86506431      16.75237595      16.66019902      16.58908346      16.52809539      16.47298743      16.42833757      16.39009804      16.35124493      16.31067732      16.26501520      16.21243734      16.15064564      16.08875751      16.03754545      15.99133375      15.94765366      15.90773106      15.86808178      15.83760827