# File generated by Flopy version 3.5.0 on 03/06/2024 at 10:48:00.
BEGIN options
END options

BEGIN griddata
  icelltype
    CONSTANT  0
  k
    INTERNAL  FACTOR  1.0
    9.73142444E-07  7.88015620E-06  7.96555872E-06  7.01584215E-06  7.03319889E-06  5.72712530E-06  4.25383785E-06  4.75358482E-06  5.17980362E-06  5.67611802E-06  6.73250466E-06  8.26628831E-06  7.93559132E-06  5.31306041E-06  4.76890622E-06  4.50979194E-06  4.12997490E-06  4.29394698E-06  4.35907181E-06  4.27538083E-06
    3.45944207E-06  3.28393969E-06  3.37370647E-06  3.23981043E-06  3.34071965E-06  3.26338311E-06  3.72642560E-06  3.72956058E-06  3.40235012E-06  3.75121489E-06  3.67648898E-06  3.38751105E-06  3.01570487E-06  3.12787504E-06  3.71772582E-06  3.86805642E-06  4.55706970E-06  4.67591507E-06  4.08439942E-06  3.56985468E-06
    3.43702853E-06  4.35043224E-06  4.59103009E-06  5.24860218E-06  6.66241978E-06  7.49437938E-06  8.68569860E-06  8.92600553E-06  1.04945004E-05  8.97541845E-06  7.00117596E-06  7.75130961E-06  8.62109627E-06  1.10379054E-05  1.17860933E-05  1.16177942E-05  9.53085236E-06  6.19003887E-06  5.65907128E-06  4.95938208E-06
    4.41903173E-06  3.84894321E-06  3.23618787E-06  3.07419057E-06  2.77857552E-06  3.19789910E-06  3.64669715E-06  3.57257376E-06  3.57257908E-06  3.38207680E-06  3.47565736E-06  3.38252668E-06  3.30413773E-06  3.40212653E-06  3.00229530E-06  2.93765226E-06  2.98192925E-06  3.34480080E-06  3.23155841E-06  2.61940593E-06
    2.61887551E-06  2.18554294E-06  1.91844551E-06  1.92266360E-06  2.05763199E-06  2.18655213E-06  2.00021509E-06  2.60888950E-06  3.46598552E-06  3.94416885E-06  5.05962995E-06  6.10042429E-06  7.04675967E-06  5.60621389E-06  5.94346254E-06  8.36259964E-06  8.40798585E-06  8.91957819E-06  9.19888214E-06  9.75720045E-06
    5.79510160E-06  6.86772007E-06  7.46540665E-06  6.66622735E-06  7.37068937E-06  6.26035393E-06  4.50009379E-06  4.61097846E-06  4.91575786E-06  5.34139146E-06  5.91024635E-06  7.78223619E-06  8.58705106E-06  6.09106786E-06  5.22689109E-06  4.72649446E-06  4.22201188E-06  4.15361804E-06  4.28010047E-06  4.40691393E-06
    3.70895599E-06  3.50069546E-06  3.50755123E-06  3.36383793E-06  3.39007540E-06  3.17684512E-06  3.68271087E-06  3.80858233E-06  3.59186477E-06  3.91799581E-06  4.00384981E-06  3.86284340E-06  3.23637588E-06  3.15147261E-06  3.50965012E-06  3.66648534E-06  4.48299324E-06  4.99050969E-06  4.79239135E-06  3.90314499E-06
    3.41690235E-06  3.92610789E-06  4.06914320E-06  4.82983885E-06  6.11118861E-06  7.52521941E-06  9.02970075E-06  9.21906953E-06  1.13792169E-05  9.85574609E-06  7.61222516E-06  7.44091542E-06  7.74961757E-06  1.01227966E-05  1.13129116E-05  1.27483225E-05  1.08655041E-05  6.91302762E-06  5.90636010E-06  5.00249464E-06
    4.76250999E-06  4.27153159E-06  3.75587609E-06  3.53222199E-06  2.98393644E-06  3.26924533E-06  3.69949091E-06  3.88345251E-06  3.96891140E-06  3.79256824E-06  3.83179188E-06  3.59902753E-06  3.56597546E-06  3.66322090E-06  3.25475549E-06  3.04407000E-06  2.88920495E-06  3.38378072E-06  3.41913339E-06  2.85365283E-06
    2.76166880E-06  2.20668135E-06  1.84476450E-06  1.70039595E-06  1.89663616E-06  2.12674710E-06  1.90287558E-06  2.32749927E-06  2.92841487E-06  3.38104732E-06  4.00504867E-06  4.96436282E-06  6.55628202E-06  5.38622233E-06  5.60364247E-06  7.71522784E-06  8.58545821E-06  8.99694105E-06  8.58523336E-06  9.76275041E-06
    5.09692530E-06  6.14294925E-06  6.85360202E-06  6.06254371E-06  7.17959100E-06  6.57975695E-06  4.86863479E-06  4.58503321E-06  4.80291541E-06  5.21117962E-06  5.21775555E-06  6.85413761E-06  8.30799487E-06  6.58211239E-06  5.63684713E-06  4.99625616E-06  4.46070862E-06  4.08924912E-06  4.16274650E-06  4.30321244E-06
    3.75454709E-06  3.59337798E-06  3.56312446E-06  3.53255375E-06  3.52705544E-06  3.16607177E-06  3.58633497E-06  3.72106574E-06  3.63464950E-06  3.87933479E-06  4.15451704E-06  4.35477740E-06  3.58208423E-06  3.35082444E-06  3.45223424E-06  3.46961626E-06  4.10523300E-06  4.81246583E-06  5.30723256E-06  4.37056487E-06
    3.63808694E-06  3.78189565E-06  3.68379759E-06  4.31682799E-06  5.27816116E-06  7.02592069E-06  8.89947382E-06  9.49936247E-06  1.24778622E-05  1.12543573E-05  8.84453859E-06  7.55080434E-06  7.09186095E-06  8.74677702E-06  9.96690716E-06  1.31535171E-05  1.25546619E-05  8.40536182E-06  6.60826157E-06  5.17894321E-06
    4.90997803E-06  4.39584035E-06  4.14979684E-06  4.03115825E-06  3.36352920E-06  3.52612778E-06  3.82075279E-06  4.14922941E-06  4.25060589E-06  4.19253354E-06  4.28847418E-06  3.91666910E-06  3.84585220E-06  3.96307303E-06  3.65526996E-06  3.27471863E-06  2.82457851E-06  3.21683826E-06  3.31654960E-06  2.97815346E-06
    2.94794832E-06  2.40511656E-06  1.92669706E-06  1.56078699E-06  1.69977241E-06  1.96784593E-06  1.81339794E-06  2.12132777E-06  2.57870971E-06  3.09001972E-06  3.37465050E-06  4.06927428E-06  5.76262373E-06  4.97199066E-06  5.06664335E-06  6.69120173E-06  8.58675500E-06  9.52486449E-06  8.74369767E-06  1.01899498E-05
    4.75173555E-06  5.81851902E-06  6.59405534E-06  5.71101881E-06  6.81664152E-06  6.62866391E-06  5.23248667E-06  4.56465672E-06  4.76259406E-06  5.33355423E-06  4.93574709E-06  6.15972408E-06  7.68845627E-06  6.75729588E-06  5.87033084E-06  5.23219281E-06  4.86019645E-06  4.22337627E-06  4.19164663E-06  4.28632383E-06
    3.76655487E-06  3.60600571E-06  3.49403888E-06  3.61638603E-06  3.66617215E-06  3.25153538E-06  3.57668288E-06  3.65956933E-06  3.65441823E-06  3.72291243E-06  4.05599649E-06  4.59415054E-06  3.91887540E-06  3.66781992E-06  3.58327006E-06  3.46663625E-06  3.78379497E-06  4.34796866E-06  5.29034033E-06  4.64492107E-06
    3.92771282E-06  3.84527096E-06  3.54913824E-06  3.98669539E-06  4.58783465E-06  6.28330989E-06  8.12855579E-06  9.18927804E-06  1.28707059E-05  1.26784205E-05  1.08428068E-05  8.46112684E-06  7.18130130E-06  7.72214189E-06  8.24963909E-06  1.19927778E-05  1.32791948E-05  1.04176003E-05  7.98507846E-06  5.84239542E-06
    5.24516921E-06  4.41093072E-06  4.30921097E-06  4.30852970E-06  3.72112898E-06  3.86706586E-06  4.07930406E-06  4.56959903E-06  4.55044387E-06  4.52422429E-06  4.74355011E-06  4.32464920E-06  4.14738361E-06  4.19011803E-06  4.14506324E-06  3.70446607E-06  2.94518612E-06  3.10959289E-06  3.05980233E-06  2.86044122E-06
    2.90572632E-06  2.61804602E-06  2.16378906E-06  1.56254286E-06  1.57878053E-06  1.79589696E-06  1.71769609E-06  1.92210675E-06  2.26362018E-06  2.85361750E-06  2.98408566E-06  3.50189726E-06  5.10062404E-06  4.68924927E-06  4.58774996E-06  5.45090107E-06  7.78839273E-06  9.54431356E-06  9.17879566E-06  1.12579893E-05
    4.42490671E-06  5.56062419E-06  6.55947449E-06  5.77669984E-06  6.75125480E-06  6.79748015E-06  5.73087266E-06  4.56596545E-06  4.67049819E-06  5.45774520E-06  4.97340144E-06  5.91819848E-06  7.35609566E-06  7.04054192E-06  6.10089145E-06  5.45092255E-06  5.32080714E-06  4.56595068E-06  4.45955678E-06  4.53479884E-06
    3.99260914E-06  3.75036013E-06  3.45965154E-06  3.62623175E-06  3.70117984E-06  3.34424177E-06  3.59301658E-06  3.66929755E-06  3.78338833E-06  3.64000435E-06  3.90131569E-06  4.52909181E-06  4.07490196E-06  3.92442231E-06  3.76331564E-06  3.64862505E-06  3.69753961E-06  3.98764549E-06  4.98521236E-06  4.59422710E-06
    4.07078697E-06  3.88399974E-06  3.54541286E-06  3.83235788E-06  4.18637687E-06  5.75542239E-06  7.30064528E-06  8.49877258E-06  1.20923110E-05  1.30542237E-05  1.27750022E-05  9.97011422E-06  8.25168729E-06  7.68146343E-06  7.15912197E-06  1.01756247E-05  1.23588874E-05  1.18396814E-05  9.61272366E-06  7.08212574E-06
    6.05672790E-06  4.62371520E-06  4.46188716E-06  4.40197380E-06  3.93283285E-06  4.07537662E-06  4.29626057E-06  5.11170147E-06  5.03801754E-06  4.93632015E-06  5.18384168E-06  4.77448047E-06  4.51359382E-06  4.32955941E-06  4.51411379E-06  4.22284921E-06  3.26455496E-06  3.23334651E-06  2.94735735E-06  2.69476991E-06
    2.62875487E-06  2.62342872E-06  2.40911614E-06  1.67554551E-06  1.57152863E-06  1.69767319E-06  1.66958118E-06  1.77331839E-06  1.99503017E-06  2.58451774E-06  2.63656254E-06  3.04324803E-06  4.50676091E-06  4.65184762E-06  4.48791275E-06  4.58309113E-06  6.60564599E-06  8.55530434E-06  8.96158948E-06  1.20147421E-05
    4.09358267E-06  5.13380978E-06  6.32621058E-06  5.98189122E-06  6.93835074E-06  7.33701349E-06  6.73191970E-06  4.85241684E-06  4.63541677E-06  5.40179826E-06  5.02601007E-06  5.86177335E-06  7.29729910E-06  7.72202985E-06  6.66822058E-06  5.86914933E-06  5.84069651E-06  5.03113622E-06  4.91990213E-06  5.00790821E-06
    4.49815874E-06  4.17052578E-06  3.64601105E-06  3.74850210E-06  3.72289444E-06  3.41360532E-06  3.52257067E-06  3.60723799E-06  3.94932485E-06  3.68638963E-06  3.87685334E-06  4.41885891E-06  4.09448784E-06  4.00082695E-06  3.79987220E-06  3.82913446E-06  3.75307532E-06  3.84777990E-06  4.75816229E-06  4.46516280E-06
    4.08107770E-06  3.78895347E-06  3.51213527E-06  3.68057332E-06  3.91131813E-06  5.46359498E-06  6.81080934E-06  8.06373063E-06  1.10010018E-05  1.23645455E-05  1.34504632E-05  1.10773630E-05  9.88423447E-06  8.62537042E-06  7.10843734E-06  9.03825434E-06  1.09407412E-05  1.21112074E-05  1.05898441E-05  8.50097755E-06
    7.31260251E-06  5.12705501E-06  4.79490950E-06  4.57259682E-06  4.14557072E-06  4.14146302E-06  4.31954456E-06  5.45034048E-06  5.57960168E-06  5.55493435E-06  5.74201776E-06  5.26718900E-06  4.92483291E-06  4.52410589E-06  4.68427063E-06  4.56418246E-06  3.64865265E-06  3.52158740E-06  3.07641811E-06  2.71003750E-06
    2.38705486E-06  2.45053069E-06  2.49536912E-06  1.80585721E-06  1.63083513E-06  1.67254351E-06  1.70192849E-06  1.71983283E-06  1.83745866E-06  2.37108261E-06  2.34357352E-06  2.59436266E-06  3.74296239E-06  4.55144719E-06  4.72128282E-06  4.31745837E-06  5.85359936E-06  7.32499381E-06  7.98501639E-06  1.13022972E-05
    3.96086941E-06  4.72304193E-06  5.82430966E-06  5.97811875E-06  6.91197588E-06  7.90881355E-06  8.37291805E-06  5.72758718E-06  4.93721705E-06  5.38057049E-06  4.99059683E-06  5.63843104E-06  7.04745472E-06  8.49291276E-06  7.62677781E-06  6.64567553E-06  6.59338636E-06  5.63290411E-06  5.47648533E-06  5.54436434E-06
    5.13693720E-06  4.77304403E-06  4.06435399E-06  4.09714653E-06  3.91653949E-06  3.58693797E-06  3.44258843E-06  3.41097354E-06  3.91304184E-06  3.71446976E-06  3.95729018E-06  4.42600309E-06  4.17153263E-06  4.01835056E-06  3.69876907E-06  3.82984463E-06  3.72915033E-06  3.78791361E-06  4.63461859E-06  4.46100848E-06
    4.15177151E-06  3.69345537E-06  3.46071731E-06  3.46441256E-06  3.58466005E-06  5.10388574E-06  6.44955178E-06  8.01054287E-06  1.04423020E-05  1.17854845E-05  1.31625422E-05  1.10950753E-05  1.10128022E-05  9.85878716E-06  7.87594344E-06  8.92100575E-06  1.02307267E-05  1.21101700E-05  1.08453741E-05  9.54634568E-06
    8.59411734E-06  5.81236119E-06  5.22230553E-06  4.86928533E-06  4.54233966E-06  4.28522476E-06  4.30112090E-06  5.45358448E-06  5.83540326E-06  6.15840075E-06  6.42645226E-06  5.94333666E-06  5.37385735E-06  4.78561806E-06  4.85289707E-06  4.69587233E-06  3.92469570E-06  3.74920934E-06  3.31443335E-06  2.93130502E-06
    2.33626412E-06  2.31664046E-06  2.46331006E-06  1.89734283E-06  1.68627880E-06  1.65670371E-06  1.77382388E-06  1.74844192E-06  1.79769973E-06  2.29532512E-06  2.20915662E-06  2.27993189E-06  2.93266666E-06  4.03816361E-06  4.82847667E-06  4.41915200E-06  5.75230406E-06  6.69129149E-06  7.11892917E-06  9.59381328E-06
    4.11265411E-06  4.59176070E-06  5.42715038E-06  5.85630912E-06  6.47969185E-06  7.86706483E-06  1.00000684E-05  7.25104833E-06  5.79885522E-06  5.69088162E-06  5.08646480E-06  5.29143087E-06  6.36563419E-06  8.61229554E-06  8.48411269E-06  7.60784545E-06  7.57786177E-06  6.44140318E-06  6.11443655E-06  6.01551012E-06
    5.71488048E-06  5.28736769E-06  4.50576987E-06  4.52479785E-06  4.27407981E-06  3.97071049E-06  3.52817535E-06  3.25116648E-06  3.64817812E-06  3.53727598E-06  3.92264218E-06  4.42451552E-06  4.35347390E-06  4.12996719E-06  3.63753129E-06  3.72168662E-06  3.54622567E-06  3.62718079E-06  4.40813414E-06  4.48346954E-06
    4.34036491E-06  3.73907769E-06  3.52580959E-06  3.32168144E-06  3.25745129E-06  4.53617255E-06  5.82429410E-06  7.82246299E-06  1.01881999E-05  1.19603533E-05  1.32145567E-05  1.07509928E-05  1.12019829E-05  1.04641065E-05  8.78359124E-06  9.29173810E-06  1.03123890E-05  1.27113217E-05  1.12009825E-05  1.03706526E-05
    9.63171058E-06  6.54101155E-06  5.55025401E-06  5.06012538E-06  5.01834879E-06  4.60401993E-06  4.46190882E-06  5.43659823E-06  5.82791530E-06  6.41362676E-06  6.88505465E-06  6.76859958E-06  5.99226509E-06  5.05054920E-06  5.08817361E-06  4.88077066E-06  4.15661251E-06  3.80100146E-06  3.45571120E-06  3.20602786E-06
    2.41916426E-06  2.31075140E-06  2.45850592E-06  2.00631398E-06  1.73937364E-06  1.62329000E-06  1.80528952E-06  1.78252603E-06  1.81984283E-06  2.32621427E-06  2.25277912E-06  2.20036459E-06  2.40067525E-06  3.30661785E-06  4.41129343E-06  4.40799677E-06  5.89927963E-06  6.68587851E-06  6.94705624E-06  8.21262026E-06
    4.36827640E-06  4.71825085E-06  5.37966688E-06  6.02846910E-06  6.08735977E-06  7.24670305E-06  1.05207891E-05  8.88762275E-06  7.24141148E-06  6.45395898E-06  5.56418394E-06  5.14385859E-06  5.57396390E-06  7.88677094E-06  8.58076442E-06  8.28777446E-06  8.44390701E-06  7.36917928E-06  6.87583771E-06  6.40001637E-06
    6.17824981E-06  5.59516202E-06  4.74898861E-06  4.72163933E-06  4.52499731E-06  4.45788740E-06  3.81609612E-06  3.29277029E-06  3.41207102E-06  3.22873685E-06  3.63118664E-06  4.16438217E-06  4.44839044E-06  4.28611652E-06  3.69030773E-06  3.67853634E-06  3.34852349E-06  3.38300094E-06  3.99393185E-06  4.31314505E-06
    4.44981050E-06  3.86667383E-06  3.75929190E-06  3.38293694E-06  3.10372979E-06  4.00376222E-06  5.00665995E-06  7.03703891E-06  9.35510431E-06  1.22359494E-05  1.39913564E-05  1.10252857E-05  1.12658014E-05  1.04939830E-05  9.31608687E-06  9.38352903E-06  1.04617204E-05  1.36895029E-05  1.20826485E-05  1.15225548E-05
    1.07637072E-05  7.46897327E-06  5.80524608E-06  4.99513598E-06  5.24345572E-06  4.87416992E-06  4.75396899E-06  5.65104882E-06  5.96029812E-06  6.47008566E-06  6.86781751E-06  7.33611016E-06  6.71836879E-06  5.39148155E-06  5.30345599E-06  5.17627496E-06  4.56015628E-06  3.86806427E-06  3.48695521E-06  3.37885762E-06
    2.50459982E-06  2.34630372E-06  2.48782384E-06  2.19757704E-06  1.85759450E-06  1.62147840E-06  1.79860256E-06  1.76616672E-06  1.81622648E-06  2.33257202E-06  2.39777924E-06  2.31818767E-06  2.21670851E-06  2.80182694E-06  3.73259696E-06  4.04439419E-06  5.69708796E-06  6.73715616E-06  7.29410155E-06  7.59090921E-06
    4.40539330E-06  4.77852981E-06  5.50559402E-06  6.69265896E-06  6.24073506E-06  6.80897138E-06  1.00270492E-05  9.85418108E-06  8.84957597E-06  7.55766409E-06  6.56327131E-06  5.45328547E-06  5.09989807E-06  6.96155057E-06  8.00306084E-06  8.41889831E-06  8.80864699E-06  8.15167612E-06  7.73272473E-06  6.79815377E-06
    6.63487512E-06  5.87035668E-06  4.87250609E-06  4.62926998E-06  4.43607991E-06  4.73117429E-06  4.15290427E-06  3.54784633E-06  3.39192382E-06  3.01517276E-06  3.25366051E-06  3.66158467E-06  4.23296640E-06  4.26285257E-06  3.75053975E-06  3.71602299E-06  3.25249976E-06  3.20306917E-06  3.57129468E-06  3.97179834E-06
    4.29514187E-06  3.86208701E-06  4.00775394E-06  3.61114306E-06  3.19850115E-06  3.75123730E-06  4.42747000E-06  6.01746551E-06  7.74549088E-06  1.13984296E-05  1.43990281E-05  1.19029939E-05  1.18974993E-05  1.07677903E-05  9.81179507E-06  9.12592095E-06  1.01111368E-05  1.40328901E-05  1.29904163E-05  1.29577284E-05
    1.22683293E-05  9.01972885E-06  6.33282541E-06  4.88315883E-06  5.14504479E-06  4.81877173E-06  4.86065821E-06  5.87879993E-06  6.41578051E-06  6.79845301E-06  6.69038941E-06  7.42139035E-06  7.20157498E-06  5.79289547E-06  5.47211341E-06  5.41233463E-06  5.13724795E-06  4.15737689E-06  3.61122533E-06  3.50898514E-06
    2.56873505E-06  2.33052326E-06  2.43300565E-06  2.40453359E-06  2.06599640E-06  1.70887020E-06  1.83765090E-06  1.74821165E-06  1.77567666E-06  2.20819173E-06  2.48677445E-06  2.52049896E-06  2.23487204E-06  2.63509447E-06  3.26485885E-06  3.60644467E-06  5.07807431E-06  6.33146131E-06  7.51762202E-06  7.29410417E-06
    4.20285734E-06  4.50226497E-06  5.35272073E-06  7.46968894E-06  7.01019872E-06  7.09368587E-06  9.65112687E-06  1.03056892E-05  1.01603059E-05  8.65292304E-06  7.97392107E-06  6.27987154E-06  5.13299647E-06  6.41424489E-06  7.42612426E-06  8.35152260E-06  8.79686524E-06  8.63945938E-06  8.46660348E-06  7.26148693E-06
    7.20720080E-06  6.33958849E-06  5.17688822E-06  4.56015314E-06  4.18378144E-06  4.62299186E-06  4.28950459E-06  3.87724799E-06  3.57939712E-06  3.01280265E-06  3.01369573E-06  3.19125349E-06  3.80414214E-06  3.95548526E-06  3.65874604E-06  3.68647949E-06  3.20803187E-06  3.12831435E-06  3.30199340E-06  3.70200262E-06
    4.01932303E-06  3.66935760E-06  4.02921419E-06  3.78786301E-06  3.44980422E-06  3.77510684E-06  4.28634158E-06  5.41676136E-06  6.22593733E-06  9.47464432E-06  1.31668549E-05  1.23575861E-05  1.26839759E-05  1.15752781E-05  1.09164165E-05  9.15272461E-06  9.62298027E-06  1.34314861E-05  1.32024278E-05  1.38434624E-05
    1.35486373E-05  1.13099578E-05  7.49957968E-06  5.06252591E-06  5.06309728E-06  4.57946189E-06  4.62326201E-06  5.65710318E-06  6.81123714E-06  7.52165563E-06  6.82982445E-06  7.37389508E-06  7.32400019E-06  6.10543706E-06  5.56757547E-06  5.46769622E-06  5.65796714E-06  4.61119833E-06  3.94991028E-06  3.78072911E-06
    2.74082677E-06  2.32821862E-06  2.27843404E-06  2.47287962E-06  2.26049640E-06  1.87390693E-06  1.97783196E-06  1.81385518E-06  1.78134286E-06  2.03581357E-06  2.42245251E-06  2.64849892E-06  2.29414136E-06  2.63911373E-06  3.09509848E-06  3.40497778E-06  4.50180910E-06  5.66259944E-06  7.25538765E-06  6.80601233E-06
    4.10442867E-06  4.10119450E-06  4.79653489E-06  7.57192522E-06  7.86335842E-06  8.02788070E-06  9.98052105E-06  1.10767290E-05  1.14770147E-05  9.69322059E-06  9.53760003E-06  7.45808834E-06  5.62244964E-06  6.30803239E-06  7.19969409E-06  8.57634338E-06  8.96084691E-06  9.16090471E-06  9.02806888E-06  7.68394538E-06
    7.75991549E-06  6.97354090E-06  5.85511651E-06  4.81943815E-06  4.13812146E-06  4.42111308E-06  4.19910428E-06  4.07619408E-06  3.80735976E-06  3.19087775E-06  2.96541414E-06  2.90832857E-06  3.43070840E-06  3.55663660E-06  3.42282961E-06  3.48777377E-06  3.09258371E-06  3.04297665E-06  3.13265613E-06  3.62029031E-06
    3.88600498E-06  3.50229824E-06  3.85473512E-06  3.74315958E-06  3.62624628E-06  3.85384123E-06  4.44842149E-06  5.41506766E-06  5.43748587E-06  7.70767393E-06  1.08652772E-05  1.16234653E-05  1.25355061E-05  1.21958588E-05  1.25771146E-05  9.86934216E-06  9.66302441E-06  1.27550887E-05  1.29864281E-05  1.37720266E-05
    1.36105359E-05  1.34493602E-05  9.25718605E-06  5.70241003E-06  5.29263935E-06  4.54565304E-06  4.34601274E-06  5.00332245E-06  6.56965608E-06  8.07552544E-06  7.32227809E-06  7.62155015E-06  7.40377263E-06  6.32258736E-06  5.59774418E-06  5.37399680E-06  5.90590687E-06  5.00070009E-06  4.38427018E-06  4.21491805E-06
    3.15300102E-06  2.49881607E-06  2.18506199E-06  2.41326339E-06  2.30786898E-06  2.00696052E-06  2.15486828E-06  1.98902751E-06  1.90925326E-06  1.95849937E-06  2.31849313E-06  2.64365798E-06  2.30903400E-06  2.62110068E-06  3.01838367E-06  3.43045362E-06  4.22977321E-06  5.21197172E-06  6.87003575E-06  6.19548596E-06
    4.35417823E-06  3.96626654E-06  4.26295069E-06  6.89363654E-06  8.05411373E-06  8.95080133E-06  1.06175564E-05  1.24231499E-05  1.33847240E-05  1.11902941E-05  1.14370546E-05  8.94445850E-06  6.46829432E-06  6.43253928E-06  7.15090942E-06  9.05541447E-06  9.58915574E-06  1.02356961E-05  9.89597219E-06  8.20236370E-06
    8.10619223E-06  7.44445475E-06  6.73111392E-06  5.43420639E-06  4.47203461E-06  4.48691759E-06  4.16516247E-06  4.15618208E-06  3.93257860E-06  3.42567277E-06  3.02801435E-06  2.77986976E-06  3.20371279E-06  3.26089594E-06  3.20123072E-06  3.22873979E-06  2.90754879E-06  2.84571264E-06  2.89283378E-06  3.57176139E-06
    3.93412787E-06  3.54996935E-06  3.76032037E-06  3.61546886E-06  3.62729767E-06  3.74327092E-06  4.56436273E-06  5.72992458E-06  5.32158686E-06  6.75906651E-06  8.94516999E-06  1.03578380E-05  1.13044087E-05  1.17774630E-05  1.37507315E-05  1.09113960E-05  1.02968000E-05  1.26425299E-05  1.32476101E-05  1.36058353E-05
    1.27321620E-05  1.42199409E-05  1.08064681E-05  6.66662757E-06  5.80910133E-06  4.87120390E-06  4.39360373E-06  4.44263791E-06  5.81264498E-06  7.80015003E-06  7.65196799E-06  8.05811092E-06  7.70889629E-06  6.67185040E-06  5.65646525E-06  5.26897991E-06  5.92433916E-06  5.21823637E-06  4.70834649E-06  4.57789642E-06
    3.76410864E-06  2.93339631E-06  2.30286373E-06  2.43325244E-06  2.27724660E-06  2.03266255E-06  2.21506501E-06  2.17234226E-06  2.15252310E-06  2.02197838E-06  2.31989379E-06  2.63192463E-06  2.31968061E-06  2.53938962E-06  2.85351560E-06  3.45026506E-06  4.11312372E-06  5.06448517E-06  6.77116480E-06  5.89087382E-06
    4.81762440E-06  4.21902329E-06  4.11138031E-06  6.16338004E-06  7.63764612E-06  9.25952614E-06  1.07595480E-05  1.36008679E-05  1.55908588E-05  1.34576441E-05  1.42305507E-05  1.11808235E-05  7.87643535E-06  6.75490082E-06  7.04926405E-06  9.22713216E-06  1.02613539E-05  1.18767050E-05  1.15287785E-05  9.27043046E-06
    8.49121316E-06  7.63152341E-06  7.36472175E-06  6.09696594E-06  5.05867790E-06  4.86441462E-06  4.38813423E-06  4.32428603E-06  4.03908408E-06  3.66219431E-06  3.10964428E-06  2.71040604E-06  3.03960086E-06  3.06288617E-06  3.06246677E-06  3.04911902E-06  2.78183786E-06  2.62580029E-06  2.55567512E-06  3.31239404E-06
    3.91196521E-06  3.76102337E-06  3.89278284E-06  3.64958420E-06  3.63473138E-06  3.50632001E-06  4.38830189E-06  5.85699299E-06  5.49488527E-06  6.40687640E-06  7.82437259E-06  9.49613469E-06  1.00157702E-05  1.06802999E-05  1.36568983E-05  1.14727971E-05  1.08654494E-05  1.26325074E-05  1.41803118E-05  1.42851758E-05
    1.22001451E-05  1.39987599E-05  1.14645887E-05  7.52651061E-06  6.29996740E-06  5.37925770E-06  4.82271867E-06  4.29313262E-06  5.16842621E-06  6.95609104E-06  7.40552216E-06  8.14747862E-06  8.00928700E-06  7.27113862E-06  5.88228118E-06  5.26915879E-06  5.91549644E-06  5.39733037E-06  4.94006098E-06  4.68805599E-06
    4.30776583E-06  3.53243908E-06  2.65213788E-06  2.69179829E-06  2.37708154E-06  2.05851104E-06  2.13992787E-06  2.21922352E-06  2.36937528E-06  2.16464156E-06  2.44473775E-06  2.71859464E-06  2.42459690E-06  2.50898850E-06  2.65610902E-06  3.32267987E-06  3.88153452E-06  4.91321860E-06  6.79599370E-06  6.01947059E-06
    5.02731550E-06  4.63142136E-06  4.33616951E-06  5.82997487E-06  7.26269086E-06  9.20217366E-06  1.03161589E-05  1.38137443E-05  1.68300841E-05  1.57872549E-05  1.77827292E-05  1.46714190E-05  1.04756888E-05  7.61852661E-06  7.07254410E-06  8.84958800E-06  1.02016376E-05  1.31553183E-05  1.35944866E-05  1.11467077E-05
    9.29975105E-06  7.80022635E-06  7.61737732E-06  6.44636668E-06  5.53528676E-06  5.26461629E-06  4.75693543E-06  4.62239696E-06  4.24283209E-06  3.97987031E-06  3.23291333E-06  2.66325873E-06  2.85162853E-06  2.86076198E-06  2.92492554E-06  2.92267682E-06  2.77243031E-06  2.52587277E-06  2.27795919E-06  2.87954208E-06
    3.57895708E-06  3.84841836E-06  4.08944667E-06  3.90486017E-06  3.84659051E-06  3.38788517E-06  4.08909914E-06  5.59211825E-06  5.59539863E-06  6.17536714E-06  7.07482187E-06  9.05909146E-06  9.27769929E-06  9.84265100E-06  1.29627023E-05  1.14651992E-05  1.08184371E-05  1.18270403E-05  1.46947122E-05  1.55470222E-05
    1.26403172E-05  1.41023895E-05  1.17914171E-05  8.16227695E-06  6.48300333E-06  5.73841002E-06  5.39309250E-06  4.46611376E-06  4.91589515E-06  6.23279427E-06  6.87687861E-06  7.71468068E-06  7.90902939E-06  7.82218551E-06  6.26438153E-06  5.42715799E-06  5.96783265E-06  5.67328272E-06  5.29579020E-06  4.74482927E-06
    4.61890201E-06  4.02625688E-06  3.09192959E-06  3.15398317E-06  2.72196354E-06  2.26290500E-06  2.09783480E-06  2.16127802E-06  2.42681279E-06  2.25828721E-06  2.58577083E-06  2.85698513E-06  2.64686305E-06  2.62169254E-06  2.59095599E-06  3.18870046E-06  3.54169210E-06  4.52445565E-06  6.42744832E-06  6.19578264E-06
    4.75194547E-06  4.79997236E-06  4.66111870E-06  5.74565840E-06  7.17152050E-06  9.29878635E-06  9.94876026E-06  1.34806280E-05  1.66492330E-05  1.69789692E-05  2.05070305E-05  1.88650812E-05  1.48775037E-05  9.59056643E-06  7.72872585E-06  8.49814862E-06  9.43104589E-06  1.30207209E-05  1.48113178E-05  1.34286517E-05
    1.06037247E-05  8.19082277E-06  7.72761246E-06  6.47158669E-06  5.66230344E-06  5.34786334E-06  4.96899807E-06  4.82680452E-06  4.43648439E-06  4.39672921E-06  3.47707282E-06  2.68737469E-06  2.66786584E-06  2.62519307E-06  2.69889904E-06  2.71812113E-06  2.78135936E-06  2.55528686E-06  2.15934330E-06  2.51883289E-06
    3.08541361E-06  3.61651163E-06  4.01568121E-06  4.15739905E-06  4.24700658E-06  3.48786974E-06  3.93201300E-06  5.22003611E-06  5.60782344E-06  5.88330164E-06  6.31523110E-06  8.47937230E-06  8.75475719E-06  9.43460219E-06  1.25183419E-05  1.16720219E-05  1.06121484E-05  1.03570758E-05  1.36413826E-05  1.58062320E-05
    1.34458478E-05  1.48661189E-05  1.26304440E-05  9.06826710E-06  6.57458645E-06  5.84249847E-06  5.79318458E-06  4.69214626E-06  4.88600778E-06  5.80727352E-06  6.51595023E-06  7.16801652E-06  7.46381319E-06  8.00536432E-06  6.60870762E-06  5.66740886E-06  5.98793109E-06  6.00004619E-06  5.86509244E-06  5.04238498E-06
    4.93923214E-06  4.34554940E-06  3.43785515E-06  3.58007042E-06  3.21714422E-06  2.72348598E-06  2.23528736E-06  2.16576689E-06  2.39575914E-06  2.26049809E-06  2.62685894E-06  2.90510613E-06  2.88654529E-06  2.82424240E-06  2.70123005E-06  3.23494503E-06  3.34012188E-06  4.09991711E-06  5.60642338E-06  5.91484449E-06
    4.34065484E-06  4.65252966E-06  4.81177334E-06  5.55925624E-06  7.06383192E-06  9.46075146E-06  9.98456283E-06  1.35195771E-05  1.62252640E-05  1.72358976E-05  2.11435022E-05  2.18115448E-05  2.03792993E-05  1.30317010E-05  9.61832609E-06  8.96336449E-06  8.86346688E-06  1.19336047E-05  1.44034921E-05  1.50541745E-05
    1.20137990E-05  8.87171855E-06  7.95867307E-06  6.42362686E-06  5.58914721E-06  5.14035197E-06  4.90314160E-06  4.74037185E-06  4.39429929E-06  4.71826221E-06  3.83001866E-06  2.84415769E-06  2.57144318E-06  2.43015611E-06  2.43610599E-06  2.40545589E-06  2.65029166E-06  2.58855077E-06  2.16614953E-06  2.33475940E-06
    2.71280379E-06  3.25189101E-06  3.62023482E-06  4.10084870E-06  4.55511629E-06  3.71267897E-06  3.93999432E-06  4.96923074E-06  5.74569223E-06  5.75413195E-06  5.66927870E-06  7.56825802E-06  7.92467180E-06  8.87461931E-06  1.20414747E-05  1.24952324E-05  1.11098791E-05  9.24823119E-06  1.16979734E-05  1.41602418E-05
    1.32972525E-05  1.52056790E-05  1.38525743E-05  1.06755340E-05  7.02068826E-06  5.99235662E-06  6.01306015E-06  4.84776308E-06  4.82116870E-06  5.42145622E-06  6.29663254E-06  6.80867376E-06  7.05015301E-06  7.93953096E-06  6.82414037E-06  5.90829326E-06  5.86741464E-06  6.13853773E-06  6.45487045E-06  5.59385323E-06
    5.58184637E-06  4.77971329E-06  3.75437481E-06  3.80332393E-06  3.60757018E-06  3.31880954E-06  2.55485226E-06  2.33486661E-06  2.43077295E-06  2.25872038E-06  2.60131413E-06  2.83252247E-06  3.00856809E-06  2.95127073E-06  2.86134788E-06  3.43310496E-06  3.39305183E-06  3.95844373E-06  4.87182147E-06  5.28436236E-06
    4.15495570E-06  4.51198744E-06  4.86413449E-06  5.22670224E-06  6.66415499E-06  9.12848622E-06  9.97238073E-06  1.39304636E-05  1.65209905E-05  1.79916325E-05  2.09336137E-05  2.27659439E-05  2.46607453E-05  1.71461403E-05  1.29696507E-05  1.07223085E-05  9.30350537E-06  1.12577038E-05  1.33677477E-05  1.55914291E-05
    1.29635840E-05  9.67958559E-06  8.38164076E-06  6.53006261E-06  5.60336923E-06  4.94816202E-06  4.78898445E-06  4.51348767E-06  4.11352400E-06  4.69334732E-06  4.11820512E-06  3.12602838E-06  2.60689565E-06  2.35014329E-06  2.25583823E-06  2.11575370E-06  2.37587859E-06  2.48564968E-06  2.19211780E-06  2.26194297E-06
    2.52253467E-06  3.00893512E-06  3.19330522E-06  3.76295293E-06  4.51760999E-06  3.87604526E-06  3.94770844E-06  4.73019353E-06  6.01114131E-06  5.98616772E-06  5.45178685E-06  6.81588293E-06  6.94708228E-06  7.83096440E-06  1.06726934E-05  1.31251874E-05  1.24822988E-05  9.12721649E-06  1.03166016E-05  1.18949710E-05
    1.19427507E-05  1.39611065E-05  1.42631951E-05  1.26561771E-05  7.94638006E-06  6.48081818E-06  6.34108245E-06  5.10009837E-06  4.74781633E-06  4.93162931E-06  5.90188476E-06  6.44645765E-06  6.79074966E-06  7.91874980E-06  7.03965288E-06  6.18679790E-06  5.75756640E-06  5.97938630E-06  6.64473865E-06  6.10241278E-06
    6.51149430E-06  5.58403017E-06  4.32853383E-06  4.01324497E-06  3.82383642E-06  3.81488346E-06  2.92353505E-06  2.62763874E-06  2.57653276E-06  2.33959600E-06  2.61536038E-06  2.77027249E-06  3.04940095E-06  2.93196406E-06  2.90319708E-06  3.53764836E-06  3.54405845E-06  4.12550242E-06  4.59155115E-06  4.85271994E-06
    4.18701799E-06  4.58308828E-06  5.07897473E-06  5.04035020E-06  6.21750570E-06  8.24931268E-06  9.33807038E-06  1.36831026E-05  1.69517468E-05  1.98212687E-05  2.17363908E-05  2.36112401E-05  2.71340511E-05  2.04486705E-05  1.68983810E-05  1.35149322E-05  1.09826506E-05  1.16874086E-05  1.30120843E-05  1.59882234E-05
    1.36351413E-05  1.04780218E-05  8.84784895E-06  6.82258869E-06  5.80773141E-06  4.95105014E-06  4.88955418E-06  4.47158834E-06  3.88138450E-06  4.40450305E-06  4.17593778E-06  3.39609314E-06  2.72458916E-06  2.40651618E-06  2.21445190E-06  1.95363989E-06  2.12374800E-06  2.27838664E-06  2.15451728E-06  2.18397146E-06