# File generated by Flopy version 3.6.0 on 02/20/2024 at 15:17:35.
BEGIN options
END options

BEGIN timing
  TDIS6  Reference.tdis
END timing

BEGIN models
  gwf6  Reference.nam  reference
END models

BEGIN exchanges
END exchanges

BEGIN solutiongroup  1
  ims6  Reference.ims  reference
END solutiongroup  1

