# File generated by Flopy version 3.6.0 on 02/20/2024 at 15:17:36.
BEGIN griddata
  strt
    INTERNAL  FACTOR  1.0
        15.00000000      15.00000000      15.00000000      15.00000000      15.00000000      15.00000000      15.00000000      15.00000000      15.00000000      15.00000000      15.00000000      15.00000000      15.00000000      15.00000000      15.00000000      15.00000000      15.00000000      15.00000000      15.00000000      15.00000000
        15.00000000      15.00000000      15.00000000      15.00000000      15.00000000      15.00000000      15.00000000      15.00000000      15.00000000      15.00000000      15.00000000      15.00000000      15.00000000      15.00000000      15.00000000      15.00000000      15.00000000      15.00000000      15.00000000      15.00000000
        15.00000000      15.00000000      15.00000000      15.00000000      15.00000000      15.00000000      15.00000000      15.00000000      15.00000000      15.00000000      15.00000000      15.00000000      15.00000000      15.00000000      15.00000000      15.00000000      15.00000000      15.00000000      15.00000000      15.00000000
        15.00000000      15.00000000      15.00000000      15.00000000      15.00000000      15.00000000      15.00000000      15.00000000      15.00000000      15.00000000      15.00000000      15.00000000      15.00000000      15.00000000      15.00000000      15.00000000      15.00000000      15.00000000      15.00000000      15.00000000
        15.00000000      15.00000000      15.00000000      15.00000000      15.00000000      15.00000000      15.00000000      15.00000000      15.00000000      15.00000000      15.00000000      15.00000000      15.00000000      15.00000000      15.00000000      15.00000000      15.00000000      15.00000000      15.00000000      15.00000000
        15.08240014      15.08757062      15.09239390      15.09318345      15.10093959      15.10686943      15.08797544      15.07756438      15.08692834      15.07728451      15.08134491      15.07447392      15.06223145      15.05217797      15.04303284      15.03459086      15.03344831      15.03484224      15.03764608      15.04052577
        15.04285219      15.04212922      15.03703889      15.03194454      15.02723424      15.02890538      15.02908082      15.02696349      15.02884068      15.03053153      15.03220424      15.03098540      15.03082123      15.03030495      15.03278874      15.03365115      15.03370390      15.03942321      15.04171101      15.04461264
        15.05405098      15.06053819      15.06595553      15.07289067      15.08165398      15.07633685      15.08146737      15.07751347      15.06984176      15.07255489      15.06640098      15.06335435      15.05462714      15.05576609      15.06249358      15.06942466      15.06500153      15.05745320      15.06471822      15.07310906
        15.07716636      15.08491731      15.09490520      15.09910199      15.09732397      15.08798124      15.08762137      15.08378806      15.07138696      15.06072966      15.06437679      15.05445336      15.04496831      15.04971343      15.04330111      15.04333364      15.04212990      15.03920254      15.04263258      15.05371327
        15.05947330      15.07098212      15.07956222      15.07711957      15.08252291      15.08617883      15.08560368      15.08808973      15.08757611      15.07766711      15.07175008      15.07121783      15.07843347      15.08285704      15.09096731      15.10229652      15.12348002      15.12986524      15.12147191      15.12369656
        15.18155248      15.17905446      15.19439794      15.19255548      15.19678836      15.20487286      15.19408168      15.17926145      15.18355246      15.16975452      15.14996175      15.14475365      15.12051469      15.09796017      15.08564040      15.07113876      15.06566937      15.06864272      15.07241477      15.07728249
        15.07865645      15.07871754      15.07313414      15.06862951      15.05813798      15.05788196      15.05588904      15.05436094      15.05764471      15.05866237      15.06224931      15.06178359      15.06323183      15.06216695      15.06459150      15.06661277      15.06826385      15.07436071      15.08297984      15.09046264
        15.09992248      15.11098365      15.11666186      15.13373999      15.14281033      15.14109818      15.14145972      15.14375517      15.13641679      15.13520242      15.13180856      15.12646342      15.11778946      15.11393982      15.12139887      15.12983733      15.12721914      15.12139077      15.12445009      15.13568038
        15.14231190      15.14761291      15.15879315      15.16233833      15.16351039      15.15143800      15.14580165      15.14041966      15.13099525      15.11674825      15.11113331      15.10514701      15.09303250      15.09674332      15.09545095      15.08930781      15.08681671      15.08558870      15.08726564      15.10202421
        15.11369808      15.13093448      15.14405910      15.15388238      15.15703914      15.16293754      15.16410560      15.16047986      15.18148214      15.17868523      15.16896856      15.15952181      15.17168613      15.18647086      15.19570306      15.21302272      15.23417571      15.25218009      15.24777774      15.24945636
        15.29099678      15.28680868      15.29939457      15.29497260      15.29193359      15.29803303      15.29633571      15.27897206      15.27075293      15.25672574      15.22175186      15.20322987      15.17335576      15.13485953      15.11720214      15.10743583      15.09873828      15.09998137      15.10291550      15.10788590
        15.11211602      15.11191074      15.10836866      15.10267905      15.09280532      15.08618822      15.08447138      15.08288223      15.08330194      15.08445425      15.08712562      15.09069626      15.09343376      15.09268854      15.09437396      15.09519422      15.10125040      15.10690118      15.12032498      15.13128754
        15.14355127      15.15716548      15.16535815      15.18264322      15.19246939      15.19848995      15.19597736      15.20106020      15.20046589      15.19109770      15.19146981      15.18636797      15.17736615      15.16995147      15.17175811      15.17886048      15.18254227      15.17819162      15.17843045      15.18569411
        15.19442844      15.19930078      15.20714208      15.20963694      15.20811102      15.20116739      15.19514959      15.19010043      15.18184318      15.17091503      15.15871986      15.15525008      15.14604535      15.14264765      15.14676487      15.13852433      15.13530718      15.13945084      15.13637906      15.14310898
        15.16431000      15.18521022      15.20686985      15.22715566      15.23477106      15.23950122      15.24967437      15.25344251      15.27877812      15.29509530      15.28560582      15.27967569      15.28875896      15.30101620      15.30936863      15.31492489      15.33064018      15.35028306      15.35982820      15.35980665
        15.38516236      15.38316845      15.38336091      15.38445550      15.38105215      15.37762666      15.37463056      15.35964848      15.34503238      15.32769136      15.29128590      15.25207094      15.21984515      15.17473910      15.14417519      15.13988415      15.13077468      15.12846499      15.13200914      15.13572020
        15.14172167      15.14258491      15.13820248      15.13033084      15.12465178      15.11532176      15.11179253      15.10942766      15.10787181      15.10939611      15.11053992      15.11570099      15.12075407      15.12378803      15.12378501      15.12834266      15.13468918      15.14122148      15.15328688      15.17162921
        15.18628144      15.19835269      15.21049628      15.22436929      15.23690042      15.24610572      15.24557976      15.24883511      15.25348717      15.24733371      15.24733068      15.24333414      15.22882549      15.22133912      15.22251418      15.22472827      15.23189955      15.23040285      15.23042220      15.23377090
        15.24197305      15.24807830      15.24802473      15.24866449      15.24491471      15.24514228      15.24040926      15.23382073      15.22764449      15.21992742      15.20999412      15.20633607      15.19787221      15.19104834      15.19309073      15.19436947      15.19069046      15.19624526      15.19640343      15.19666491
        15.22024546      15.24337219      15.27159167      15.29420846      15.31228853      15.32147625      15.34126690      15.35098098      15.36479729      15.40086647      15.40113384      15.40186927      15.40406429      15.41141039      15.41305211      15.40990162      15.41393907      15.43252459      15.44458040      15.44755604
        15.44788364      15.45160245      15.44918462      15.45468583      15.45185133      15.44522095      15.43683883      15.42916587      15.41048071      15.39378939      15.35644669      15.30667607      15.26511893      15.21710133      15.17667559      15.16529624      15.16062232      15.15497781      15.15777476      15.16021310
        15.16589895      15.16939278      15.16396891      15.15611447      15.15211658      15.14447447      15.13846728      15.13750299      15.13761735      15.13580205      15.13849340      15.14167072      15.14884046      15.15642285      15.15724166      15.16451391      15.16851719      15.17648868      15.18894267      15.20741373
        15.21974973      15.23237512      15.24906124      15.26261624      15.27630451      15.28552906      15.28960668      15.29141109      15.30055558      15.30407691      15.30327353      15.29733846      15.28419679      15.27268248      15.27323841      15.27096263      15.27540350      15.27787717      15.27878332      15.28206219
        15.28451153      15.28740347      15.28441444      15.28376676      15.27993678      15.28155884      15.28073383      15.27628024      15.27308146      15.26763504      15.26418226      15.25931043      15.25164299      15.24786787      15.24967847      15.25356356      15.25188392      15.25326025      15.26189713      15.26158208
        15.27671964      15.30374949      15.32680217      15.35029971      15.37872565      15.39698656      15.41929623      15.43429326      15.45476863      15.48292221      15.49713534      15.50203017      15.50545944      15.51188621      15.50599323      15.50265041      15.49363346      15.49986778      15.51068864      15.51985385
        15.50468220      15.50884844      15.50858293      15.50779061      15.51044299      15.50708230      15.49875058      15.49444835      15.47608383      15.45589143      15.41825534      15.36597830      15.31162798      15.26118162      15.21568071      15.18961975      15.18699628      15.18102854      15.18018188      15.18277557
        15.18822334      15.19260667      15.19131647      15.18377719      15.17845889      15.17654420      15.17073856      15.17045481      15.17091869      15.16957330      15.17164870      15.17355364      15.17869686      15.18716449      15.19037592      15.19737823      15.20517267      15.21160486      15.22230693      15.23416057
        15.24789487      15.26386532      15.28228458      15.30115719      15.31384648      15.32422336      15.33342459      15.33793445      15.34566554      15.35230502      15.35540446      15.35099084      15.33956848      15.32099165      15.31399583      15.31278193      15.31103936      15.31629239      15.32059342      15.32255153
        15.32041015      15.32078690      15.32060364      15.31841386      15.31489794      15.31562346      15.31958392      15.32206197      15.32142121      15.31930566      15.31665888      15.30993516      15.30718493      15.30442144      15.30674223      15.30683990      15.31130880      15.30972654      15.31831860      15.32536992
        15.33164813      15.35789926      15.37558255      15.40460880      15.43348885      15.46115599      15.48354490      15.51115797      15.53719151      15.54925958      15.57164461      15.58355012      15.58777540      15.59550949      15.58869129      15.57948658      15.56860407      15.56101258      15.56728404      15.57663268
        15.55748457      15.56190496      15.56237327      15.55908015      15.56122781      15.56334933      15.55892389      15.55332275      15.54405792      15.51783045      15.48297926      15.43025587      15.36815520      15.31225397      15.26483923      15.22512090      15.21131715      15.20861409      15.20382919      15.20681541
        15.21305231      15.21606167      15.21866041      15.21422130      15.20913738      15.21030973      15.20648130      15.20441393      15.20363006      15.20676590      15.20630850      15.20974246      15.20939048      15.21353744      15.22188149      15.23046330      15.24062433      15.24503384      15.25365144      15.26205006
        15.27740662      15.29327682      15.31447529      15.33664009      15.34998697      15.36369903      15.37667342      15.38121069      15.38306894      15.39001927      15.39699211      15.39743622      15.38579424      15.36512428      15.34768933      15.34908294      15.34591146      15.34830951      15.35446433      15.35566283
        15.35515357      15.35513900      15.35503762      15.35379267      15.35161443      15.35062704      15.35684269      15.36445683      15.36709946      15.36723193      15.36463573      15.35723908      15.35488903      15.35194797      15.35437518      15.35841885      15.36524596      15.36561076      15.37036512      15.38097467
        15.39058450      15.41005096      15.42962338      15.45552049      15.48492963      15.52072347      15.54380758      15.57573228      15.60042623      15.61197155      15.62840732      15.64477369      15.65073867      15.65433054      15.65368256      15.64027799      15.63878394      15.62216959      15.62034136      15.62492000
        15.60087592      15.60845873      15.61421352      15.61294935      15.61396303      15.61950367      15.61929340      15.61481579      15.62200649      15.59179519      15.55825148      15.50816758      15.44066424      15.37193177      15.32112961      15.27265628      15.24123682      15.23616277      15.23094174      15.23254073
        15.23734257      15.23929386      15.24309564      15.24616324      15.24199291      15.24166655      15.24247403      15.23932126      15.23928074      15.24341362      15.24373253      15.24566760      15.24416146      15.24468859      15.25466024      15.26309434      15.26931076      15.27631344      15.28282714      15.29073882
        15.30549849      15.31958549      15.34246051      15.36535384      15.38370933      15.39843581      15.41130522      15.41721864      15.41747681      15.42248451      15.42831670      15.43271693      15.42434287      15.40586731      15.38538415      15.38140669      15.37938235      15.37688372      15.38185068      15.38461070
        15.38591441      15.38628847      15.38631605      15.38715124      15.38704970      15.38551792      15.39124866      15.39725000      15.40602657      15.40950780      15.40923896      15.40142069      15.39666070      15.39769331      15.39780262      15.40706992      15.41485914      15.42034532      15.42442811      15.43359848
        15.44860578      15.46002493      15.47820394      15.50497198      15.54053639      15.57123501      15.59574108      15.62430419      15.64968657      15.66604719      15.67710335      15.69216599      15.70095197      15.70321007      15.71008424      15.70554663      15.70076935      15.69172077      15.68140125      15.67990279
        15.64825600      15.65537313      15.66813314      15.67231295      15.67557537      15.68291401      15.68677390      15.69363197      15.69882285      15.67576414      15.63350999      15.58943837      15.51990959      15.43929371      15.38000582      15.32482698      15.28124082      15.26299905      15.25726013      15.25578002
        15.25970590      15.26642464      15.27097309      15.27907624      15.27691901      15.27500024      15.27751195      15.27606463      15.27679876      15.27627684      15.27770587      15.27675934      15.27859545      15.27770030      15.28255841      15.29098199      15.29496858      15.30187172      15.30767864      15.31638814
        15.32826184      15.34364900      15.36881760      15.39497025      15.41303582      15.42734989      15.44032436      15.44913538      15.45012670      15.45242496      15.45639978      15.45995836      15.45649458      15.44098200      15.42077676      15.40887325      15.40757389      15.40495734      15.40402285      15.40632486
        15.41033284      15.41275873      15.41477107      15.41694261      15.41870218      15.42024373      15.42253579      15.42967929      15.44098836      15.44703309      15.44740176      15.44570071      15.44118111      15.44281708      15.44176728      15.45040279      15.45942301      15.46942273      15.47702507      15.48583775
        15.49729406      15.50914684      15.52565366      15.55748278      15.58944938      15.61403490      15.64362200      15.66746719      15.69537415      15.71363913      15.72402804      15.73314190      15.74660150      15.75517940      15.76172154      15.76641200      15.75734759      15.75864587      15.75206365      15.74375257
        15.70438145      15.70780304      15.72222606      15.73001572      15.74059695      15.75153977      15.75948595      15.76585356      15.75945345      15.74860799      15.70161813      15.65831569      15.59571531      15.51126197      15.43961375      15.38181649      15.32766003      15.29357305      15.28042635      15.27469230
        15.28597692      15.29693909      15.30359310      15.30943394      15.31215894      15.30851001      15.30773974      15.30886997      15.30773136      15.30400645      15.30574191      15.30477385      15.30614254      15.30628508      15.30848868      15.31596786      15.32108645      15.32520573      15.33247121      15.34123269
        15.35095940      15.37085066      15.39747277      15.42341459      15.43933133      15.45557693      15.46669238      15.47448355      15.47772859      15.47878014      15.48135398      15.48224153      15.48090839      15.47012707      15.45162772      15.43634846      15.43324538      15.43037051      15.42500812      15.42410031
        15.43336040      15.43738000      15.44224116      15.44480240      15.44790185      15.45349656      15.45642072      15.46327727      15.47001748      15.47702123      15.47999257      15.48399072      15.48272301      15.48159916      15.48420295      15.48758258      15.49890142      15.51137342      15.52188075      15.52955268
        15.54512599      15.56149064      15.57929323      15.60854106      15.63595103      15.66129082      15.68926428      15.71318321      15.73956745      15.75399944      15.76597955      15.77576943      15.79046576      15.80072042      15.80749228      15.81669277      15.81583434      15.81541450      15.81992324      15.81587455
        15.75703519      15.76119237      15.76839472      15.78092366      15.79726735      15.80882062      15.81843594      15.82382657      15.82034886      15.81164535      15.76791174      15.71257875      15.65778160      15.58628677      15.50290849      15.43925269      15.37867361      15.33308421      15.30577441      15.27562803
        15.31279795      15.32686444      15.33776079      15.33948261      15.34466226      15.34046085      15.33520284      15.33481843      15.33244969      15.33012109      15.33086841      15.33048533      15.33092616      15.33368643      15.33642241      15.34128355      15.34800009      15.35271083      15.35977392      15.37028203
        15.38013266      15.39866726      15.42564784      15.44982840      15.46653606      15.48040410      15.48845298      15.49443354      15.50021001      15.50188192      15.50473249      15.50425956      15.50201324      15.49641625      15.48151469      15.46600827      15.45842697      15.45423332      15.44767559      15.43827162
        15.45491653      15.46128775      15.46610498      15.46897498      15.47322579      15.48065047      15.48525298      15.48923714      15.49405476      15.50159724      15.50697522      15.51294394      15.51606738      15.51805708      15.52254633      15.52855184      15.53737068      15.54815747      15.55808677      15.56927622
        15.59195939      15.60939901      15.63154796      15.65659279      15.68101490      15.70612066      15.72635893      15.75200686      15.77221479      15.78816399      15.80181924      15.81641381      15.82557922      15.83798087      15.84877070      15.85966396      15.86770766      15.86948642      15.87935698      15.88418449
        15.80081989      15.80923938      15.81448648      15.82834800      15.84111769      15.85251763      15.86339192      15.87213417      15.87237585      15.86134802      15.82449140      15.75979581      15.70202977      15.64603276      15.56430211      15.49188197      15.43709915      15.38510788      15.35489827      15.33936551
        15.35094036      15.36251781      15.37181825      15.37399286      15.37468281      15.37241133      15.36509298      15.36004126      15.35682224      15.35528015      15.35536945      15.35771968      15.35943055      15.36284426      15.36619356      15.37042722      15.37443591      15.38406430      15.39177158      15.40315900
        15.41322940      15.42952431      15.45803369      15.47694777      15.49103599      15.50199522      15.50940057      15.51507374      15.52095577      15.52408406      15.52617698      15.52566113      15.52394873      15.52061340      15.50987295      15.49441873      15.48298487      15.47808568      15.47382732      15.47200326
        15.47549637      15.48186423      15.48485999      15.48945014      15.49435010      15.50023900      15.50558617      15.51004005      15.51676372      15.52270636      15.53032497      15.53646265      15.54314178      15.55037031      15.55650240      15.56510006      15.57107964      15.57847739      15.58885119      15.60243884
        15.62496256      15.64681811      15.67405315      15.69748614      15.72237978      15.74317692      15.75946023      15.78231534      15.80325754      15.82003643      15.83584562      15.85411332      15.86308932      15.87477193      15.88571367      15.89731371      15.90829689      15.91637693      15.92666740      15.93404146
        15.84432824      15.85120887      15.85866900      15.86651952      15.87598758      15.88701585      15.89526284      15.90454986      15.90530516      15.89592852      15.86638436      15.80599399      15.73942505      15.69213148      15.62748911      15.54561894      15.49590441      15.44511880      15.41422396      15.39604868
        15.39517749      15.40162015      15.40740528      15.41102200      15.40564446      15.40475233      15.39976170      15.38904218      15.38168703      15.38031333      15.38167333      15.38571771      15.38939550      15.39264842      15.39795042      15.40298392      15.40746652      15.41833993      15.42875291      15.43839150
        15.45647051      15.47370001      15.49461091      15.50628436      15.51491550      15.52306718      15.53084871      15.53629723      15.54067066      15.54350962      15.54463319      15.54461703      15.54451186      15.53926817      15.53184067      15.51922028      15.50564043      15.49865798      15.49458405      15.49390727
        15.49390705      15.49822247      15.50206307      15.50615058      15.51041334      15.51566410      15.52127158      15.52737691      15.53464887      15.54077458      15.54921120      15.55480532      15.56428322      15.57375292      15.58128878      15.58955666      15.59820024      15.60448351      15.61282493      15.62839776
        15.64946091      15.67826607      15.70661284      15.73577152      15.76006151      15.77675297      15.79254139      15.81291066      15.83345925      15.84770956      15.86757236      15.88848512      15.89903977      15.90753157      15.91555306      15.92691297      15.93631688      15.94914616      15.96063648      15.96671259
        15.88068216      15.88235130      15.88961320      15.89548299      15.90326731      15.91001389      15.91720842      15.92520509      15.92826073      15.92378856      15.90288768      15.85368893      15.78436279      15.73463281      15.68417664      15.60947408      15.55120377      15.50859321      15.47363485      15.45303176
        15.44217309      15.43920538      15.44313461      15.44451752      15.43859695      15.43621110      15.43314302      15.42345438      15.41121043      15.41002621      15.40968313      15.41449042      15.42056820      15.42573299      15.43504066      15.44324505      15.44896059      15.45531274      15.46892995      15.48447567
        15.50572533      15.52214289      15.53026981      15.53678989      15.53813786      15.54263809      15.54962165      15.55422640      15.55671202      15.56017924      15.56039579      15.56026608      15.55968490      15.55520533      15.54754970      15.53955945      15.52638854      15.51644092      15.51110017      15.50938496
        15.51052513      15.51239123      15.51563637      15.51857235      15.52303482      15.52828527      15.53296549      15.54001020      15.54706135      15.55478254      15.56254823      15.56990403      15.58032012      15.59001569      15.59978571      15.61019587      15.61923079      15.62631529      15.63517299      15.65111845
        15.67363869      15.70345636      15.73569721      15.76858998      15.79101498      15.80918611      15.82404002      15.84009545      15.85736892      15.87401277      15.89728166      15.91609410      15.92848055      15.93508918      15.94228021      15.95092222      15.96186630      15.97310662      15.98495011      15.99017167
        15.90495037      15.90648010      15.91127894      15.91737379      15.92309464      15.92707107      15.93496718      15.94180833      15.94797211      15.94599647      15.93187585      15.89428767      15.83309905      15.77644932      15.72538853      15.66846834      15.60164701      15.56110048      15.52457730      15.50073431
        15.48439144      15.47457955      15.47537455      15.47622118      15.47160231      15.46543667      15.46337465      15.46093233      15.45039609      15.44490186      15.44379651      15.44620857      15.45389384      15.46124599      15.47464949      15.48293422      15.48983136      15.49635127      15.51079263      15.52890150
        15.54783571      15.56262970      15.56564129      15.56322018      15.56110554      15.56098583      15.56443290      15.56860501      15.57209395      15.57564942      15.57481086      15.57300936      15.57187595      15.56929607      15.56136968      15.55390641      15.54413417      15.53190506      15.52496052      15.52218903
        15.52343357      15.52375360      15.52584792      15.52869815      15.53315465      15.53705290      15.54288719      15.54987273      15.55786088      15.56624940      15.57452851      15.58307896      15.59341260      15.60516460      15.61724823      15.62848915      15.63563971      15.64593135      15.65682085      15.67133372
        15.69417568      15.72249281      15.75817036      15.79224845      15.81765842      15.83609960      15.84878136      15.86422080      15.88107736      15.90072908      15.92205963      15.93922692      15.95331883      15.96021157      15.96728946      15.97487451      15.98310184      15.99172307      16.00330159      16.00970671
        15.92531335      15.92688492      15.92876209      15.93292040      15.93836120      15.94239849      15.94926342      15.95603374      15.96093466      15.95985534      15.94823088      15.91590503      15.86567030      15.81152332      15.75786029      15.70961979      15.64903196      15.59850384      15.56426368      15.53691126
        15.51964285      15.51068653      15.50607338      15.50612837      15.50266788      15.49563473      15.49475051      15.49521622      15.49067870      15.48198973      15.48045300      15.48004567      15.48632261      15.49563885      15.50753800      15.51533985      15.52570062      15.53763745      15.54883214      15.56743520
        15.58446747      15.59590247      15.59760912      15.58924535      15.58305773      15.58073572      15.57928577      15.58359776      15.58690563      15.58937716      15.58829550      15.58490935      15.58272782      15.58056273      15.57394112      15.56482099      15.55786741      15.54681146      15.53678532      15.53314393
        15.53277525      15.53429243      15.53562573      15.53826375      15.54168241      15.54629657      15.55284809      15.56066137      15.56955226      15.57768146      15.58618481      15.59591682      15.60689157      15.61882504      15.63173954      15.64434158      15.65231167      15.66355721      15.67434403      15.68833808
        15.70837206      15.73618073      15.77569836      15.81258293      15.83857819      15.85622869      15.87259707      15.88938497      15.90681838      15.92557048      15.94463527      15.96061928      15.97361550      15.98163273      15.98737155      15.99386949      15.99834462      16.00734366      16.01669190      16.02220823
        15.94266696      15.94223005      15.94299564      15.94518491      15.94994903      15.95405759      15.95900220      15.96488823      15.96777991      15.96763380      15.95647227      15.92771450      15.88586992      15.83793115      15.78237870      15.73298363      15.68307343      15.63008189      15.59349512      15.56614705
        15.54804742      15.54019435      15.53274841      15.53013059      15.52917930      15.52469754      15.52276856      15.52327320      15.52260778      15.51668920      15.51447948      15.51467958      15.51638530      15.52642752      15.53649913      15.54637551      15.55821047      15.57285650      15.58596208      15.60357988