# File generated by Flopy version 3.6.0 on 02/20/2024 at 15:17:36.
BEGIN options
END options

BEGIN griddata
  icelltype
    CONSTANT  0
  k
    INTERNAL  FACTOR  1.0
    7.02283178E-04  2.84453275E-04  1.55634612E-04  2.13903406E-04  1.59500813E-04  5.06299710E-05  1.46868673E-04  2.34577313E-04  9.81470178E-05  1.01028903E-04  6.78727051E-05  8.18256283E-05  8.68834546E-05  1.02684310E-04  3.20243410E-04  6.84401304E-04       0.00111557       0.00105385       0.00109373  6.26584243E-04
    2.37384435E-04  2.20932788E-04  3.18851202E-04  4.68972507E-04       0.00102279       0.00102892       0.00104863       0.00148991       0.00127127       0.00156654       0.00101528       0.00126131       0.00114909       0.00170302  9.91028876E-04       0.00100902       0.00145494       0.00107618  7.57640932E-04  9.56480182E-04
    3.89400049E-04  3.24395429E-04  2.97756968E-04  2.08012183E-04  1.14250938E-04  1.59977964E-04  1.33650751E-04  1.76725618E-04  2.38499182E-04  2.13596135E-04  1.75975658E-04  1.24316531E-04  2.43526908E-04  3.98954057E-04  4.76551889E-04  3.26795685E-04  3.75060573E-04       0.00141360       0.00107213  9.13550329E-04
    8.21000490E-04  9.16144899E-04  7.20641377E-04  5.72900456E-04  6.17547258E-04  7.75014806E-04  4.45970484E-04  3.03775224E-04  2.92720462E-04  4.59925655E-04  2.09974879E-04  3.06567831E-04  9.77365154E-04  5.43971615E-04       0.00117891  8.76312863E-04  8.49604258E-04  9.50536570E-04       0.00103752  7.20732525E-04
    7.81363230E-04  4.02088822E-04  2.23346393E-04  2.33121055E-04  1.82235325E-04  1.74443894E-04  1.61872637E-04  1.96849977E-04  1.55008340E-04  1.95594859E-04  3.66873825E-04  5.08578393E-04  4.66345277E-04  3.65526387E-04  2.68928762E-04  3.17309770E-04  1.57749956E-04  1.25185835E-04  1.32793734E-04  1.06208255E-04
    4.61564531E-04  3.98206017E-04  1.30697291E-04  2.51144120E-04  1.45821797E-04  7.57191695E-05  9.49941879E-05  1.77228338E-04  7.12914581E-05  6.33376171E-05  8.73806597E-05  6.03097358E-05  6.66171080E-05  1.12911788E-04  1.97695505E-04  5.51067643E-04       0.00104330       0.00115654  9.91670229E-04  5.75817758E-04
    3.24123403E-04  2.80003012E-04  3.26058843E-04  3.26457311E-04       0.00107429       0.00102178       0.00145297       0.00177375       0.00126234       0.00179531  9.74388382E-04       0.00148274       0.00105774       0.00120886       0.00112559  7.23925511E-04       0.00119979       0.00108540  7.46498578E-04  5.53830008E-04
    4.72634104E-04  3.20344385E-04  4.85280394E-04  1.86352111E-04  1.62275478E-04  1.47825082E-04  2.43175313E-04  1.85131779E-04  2.81404181E-04  2.73750313E-04  1.70430098E-04  1.14550163E-04  2.03273052E-04  4.11511842E-04  4.76547386E-04  3.85826407E-04  4.67844131E-04  8.05393560E-04       0.00119037  9.83107239E-04
    8.46341333E-04       0.00115522       0.00109333       0.00104791  8.64301080E-04  8.73440654E-04  7.35612612E-04  5.78893124E-04  2.79540492E-04  4.12227741E-04  4.36925030E-04  3.25389473E-04  8.66554011E-04  7.27481115E-04  8.02868211E-04  8.80148061E-04  7.44722896E-04  8.30508360E-04       0.00114133  8.28578940E-04
    6.92479626E-04  5.40972726E-04  3.51867118E-04  1.74614013E-04  2.22654861E-04  2.17841078E-04  1.45900893E-04  3.25175347E-04  1.40660765E-04  1.52897869E-04  1.83416645E-04  4.38638162E-04  4.98967812E-04  2.36165019E-04  2.32341695E-04  1.99671638E-04  2.12813102E-04  9.95400271E-05  1.10990775E-04  9.51354596E-05
    4.10343231E-04  2.73271387E-04  1.29598816E-04  1.62257495E-04  1.83973510E-04  8.91507659E-05  7.86824376E-05  9.63729869E-05  1.01267070E-04  3.82501768E-05  9.39934969E-05  7.24542302E-05  6.84146002E-05  1.20485696E-04  3.63738737E-04  4.80797532E-04       0.00100013  9.96491209E-04       0.00131350  8.10435420E-04
    3.55661562E-04  3.21243069E-04  2.99934805E-04  3.40627652E-04  5.98872940E-04       0.00108606       0.00141126       0.00108048       0.00124701       0.00180566       0.00142683       0.00116369       0.00101285       0.00120655       0.00112241       0.00102974  9.54749775E-04       0.00167645  7.29416009E-04  6.41775177E-04
    6.08360875E-04  4.56150583E-04  4.47642327E-04  2.86414364E-04  2.66779973E-04  1.33455786E-04  2.57210755E-04  2.53945447E-04  1.84370909E-04  3.32396748E-04  1.37529129E-04  1.32637944E-04  1.25169264E-04  2.76662734E-04  5.13657440E-04  6.22451209E-04  4.69053906E-04  6.75861538E-04       0.00116658       0.00148016
         0.00100272       0.00152941       0.00189988       0.00155063       0.00171018       0.00118567       0.00104603  6.58098573E-04  3.54351513E-04  3.34076783E-04  5.58762921E-04  3.58146549E-04  5.49272689E-04  9.52131246E-04  5.95818864E-04  7.92649201E-04  7.76327889E-04  4.82758415E-04  6.82992710E-04       0.00117217
    7.94633104E-04  6.40275275E-04  4.34265266E-04  1.62350660E-04  2.07259820E-04  2.18415243E-04  1.50948528E-04  2.68706904E-04  1.46713912E-04  9.83112337E-05  1.47397580E-04  2.65185493E-04  3.57358686E-04  1.98760923E-04  1.79201271E-04  2.01138894E-04  2.36675756E-04  1.63491972E-04  9.04581172E-05  9.13081844E-05
    3.80016180E-04  2.08840367E-04  1.73396719E-04  1.91054286E-04  1.32473511E-04  1.12387328E-04  9.44865401E-05  1.09859341E-04  9.05202833E-05  5.31502297E-05  5.09986006E-05  1.12632674E-04  6.13788636E-05  1.41151149E-04  5.57534684E-04  3.84010253E-04  6.33409759E-04       0.00119300       0.00117578       0.00105721
    3.62749856E-04  4.05387867E-04  2.80395486E-04  5.72935954E-04  4.86286664E-04       0.00117739       0.00119847       0.00104555       0.00178522       0.00173668       0.00187339       0.00142549       0.00138108       0.00100536       0.00126310  9.06400575E-04  8.61377431E-04       0.00111594       0.00112826  6.11066930E-04
    4.87488266E-04  4.66707867E-04  3.56409095E-04  4.02110664E-04  3.16872010E-04  1.47508380E-04  2.49759946E-04  2.97027016E-04  2.21626299E-04  3.28773808E-04  1.79490392E-04  1.16799446E-04  1.72090778E-04  2.69226697E-04  5.40562565E-04  8.01779597E-04  6.58263502E-04  7.53352015E-04  9.88412704E-04       0.00174691
         0.00139610       0.00119944       0.00231993       0.00200507       0.00276592  9.55926798E-04  9.01097680E-04  7.28563640E-04  3.77482070E-04  3.10548227E-04  4.11362592E-04  4.15874303E-04  3.82387191E-04  8.64788349E-04  9.88702318E-04  6.53735345E-04  5.74247097E-04  4.77187007E-04  4.20245163E-04       0.00115362
    7.17560228E-04  8.55212394E-04  4.79013003E-04  2.21921489E-04  1.67249126E-04  2.25166716E-04  1.25906373E-04  1.23958381E-04  2.11042183E-04  1.07130365E-04  1.20781856E-04  1.46722820E-04  2.94005633E-04  2.11300523E-04  1.51312323E-04  1.91061345E-04  2.86687102E-04  2.15128247E-04  1.06978374E-04  1.08499643E-04
    5.96185570E-04  2.36527255E-04  2.84531259E-04  1.86957772E-04  1.53009921E-04  1.22300146E-04  1.69655833E-04  1.00574347E-04  1.19669822E-04  5.70690288E-05  4.55730857E-05  1.08491841E-04  9.73532688E-05  9.99867043E-05  4.55683812E-04  5.18456555E-04  5.88729363E-04  9.81114460E-04       0.00122427       0.00112992
    6.19214241E-04  3.88616465E-04  4.59553393E-04  6.47727708E-04  6.04586870E-04  8.45731595E-04       0.00146544       0.00100753       0.00120452       0.00163172       0.00145952       0.00162817       0.00147490  9.03546278E-04       0.00114438  5.24368966E-04  8.63841296E-04  8.49632723E-04       0.00121244  7.18080795E-04
    5.92253206E-04  7.46108213E-04  3.27723713E-04  5.11452622E-04  4.15423913E-04  2.64010749E-04  2.05636393E-04  4.06297959E-04  3.46902447E-04  2.27742692E-04  1.56900962E-04  1.45916292E-04  1.50735039E-04  2.17598840E-04  3.55864556E-04  7.54925941E-04  7.92936161E-04  6.60101511E-04  8.77833858E-04       0.00141898
         0.00145211       0.00139445       0.00303933       0.00279023       0.00267538       0.00125956       0.00114662  8.21030313E-04  3.93049416E-04  4.14425839E-04  3.35834318E-04  3.95321174E-04  4.41132879E-04  6.28339417E-04       0.00107588  4.55702440E-04  4.25896641E-04  5.30717184E-04  2.56369697E-04  4.06424977E-04
    7.00372925E-04  6.22110861E-04  6.15093211E-04  3.20410095E-04  1.96243613E-04  1.59526495E-04  1.34334587E-04  1.08829162E-04  1.95820254E-04  1.87242260E-04  1.27018664E-04  1.69545154E-04  3.24639578E-04  2.25937044E-04  2.11998598E-04  1.57592015E-04  2.64123076E-04  3.07846542E-04  1.87480212E-04  1.22857838E-04
    8.33722716E-04  3.75644105E-04  2.38793368E-04  3.38657137E-04  1.79884247E-04  1.27522336E-04  1.56258187E-04  1.10659059E-04  8.70164567E-05  5.36814170E-05  5.32150972E-05  9.01753402E-05  7.19434749E-05  1.04091956E-04  2.19145102E-04  8.49087103E-04  4.55205861E-04  8.56901397E-04       0.00139309       0.00125413
    8.24879859E-04  7.27784686E-04  4.73196448E-04  5.48844025E-04  8.56214669E-04  8.73121632E-04       0.00114004  8.07790151E-04  8.96053304E-04       0.00149501  8.99941442E-04       0.00126805       0.00154478       0.00107938  7.85347746E-04  5.99130769E-04  7.09487550E-04  6.37404660E-04  7.53658907E-04       0.00128479
    8.80145595E-04  7.46311717E-04  4.42738838E-04  4.23849480E-04  4.95539227E-04  3.07724039E-04  2.17148466E-04  3.02784289E-04  3.78742579E-04  2.19422423E-04  1.71154283E-04  1.55532624E-04  1.03503085E-04  1.82839381E-04  4.69518712E-04  5.92166188E-04       0.00120901  8.45804322E-04  9.56172537E-04       0.00134304
         0.00191590       0.00257495       0.00275005       0.00306252       0.00240873       0.00173612       0.00111752  6.18609368E-04  3.42572826E-04  3.17264642E-04  2.57251653E-04  4.43448827E-04  3.34303742E-04  4.36104435E-04  6.91005789E-04  6.39071386E-04  3.07572404E-04  5.26549168E-04  3.01056726E-04  2.31604697E-04
    5.70434006E-04  6.61073414E-04  9.89258649E-04  4.92739116E-04  3.02052228E-04  1.89433986E-04  2.07014737E-04  1.24709649E-04  9.67891925E-05  3.69308966E-04  1.54571499E-04  1.91690772E-04  3.30691247E-04  2.70529698E-04  1.83374902E-04  1.48681639E-04  1.88834453E-04  3.63779988E-04  2.02979569E-04  1.39452969E-04
    6.31056925E-04  3.82215135E-04  2.30406577E-04  3.52738202E-04  2.03686118E-04  1.26320554E-04  1.39304327E-04  1.14111974E-04  6.87036714E-05  6.66549720E-05  6.76771598E-05  6.38419543E-05  8.53330284E-05  1.29339685E-04  1.54585630E-04  4.50334931E-04  7.73941682E-04  5.31958100E-04       0.00151674       0.00105428
    9.00750456E-04  8.76906970E-04  4.08452475E-04  4.11124939E-04  8.40274162E-04  6.21542656E-04  7.02471792E-04  6.15145137E-04       0.00100515  7.95654377E-04  8.97465985E-04  7.27911849E-04       0.00128320       0.00165004  7.89764192E-04  7.41520650E-04  5.55823718E-04  5.99180863E-04  6.56835693E-04       0.00147824
    9.32204554E-04  8.79871698E-04  6.06079235E-04  4.29396916E-04  5.54866883E-04  3.59426978E-04  1.95705931E-04  2.03085129E-04  4.40380807E-04  3.56357129E-04  1.88510407E-04  1.49155720E-04  1.16537092E-04  1.49180552E-04  5.93137132E-04  6.26476783E-04       0.00116020       0.00107337  9.98920791E-04       0.00205816
         0.00182328       0.00250185       0.00268118       0.00330998       0.00190581       0.00159578       0.00132856  5.59985330E-04  3.26077132E-04  2.82639547E-04  3.50255928E-04  4.48025013E-04  3.15322968E-04  4.80818432E-04  9.19458381E-04  6.26841334E-04  3.54993529E-04  4.17606869E-04  4.61263988E-04  1.87218103E-04
    3.31424700E-04  6.67911109E-04  8.16756209E-04  4.55190429E-04  5.47355586E-04  1.88986477E-04  2.27842357E-04  1.10036317E-04  1.15226250E-04  2.70123705E-04  2.66968216E-04  2.29281434E-04  4.45549935E-04  4.03698568E-04  2.22422116E-04  2.39335768E-04  1.68349948E-04  2.94952483E-04  2.61856714E-04  2.21243283E-04
    8.35896475E-04  4.97264322E-04  2.63811980E-04  2.98573975E-04  2.57094755E-04  1.44797290E-04  1.18553276E-04  1.43554355E-04  4.90856659E-05  5.88781070E-05  4.87355524E-05  6.24499902E-05  5.91426372E-05  9.08978804E-05  9.78314121E-05  1.76466143E-04  6.02578681E-04  4.23306077E-04  9.47387288E-04  8.55252756E-04
    6.99732904E-04       0.00100100  5.85970740E-04  3.56060513E-04  5.12330009E-04  8.69820552E-04  6.05972581E-04  6.49568679E-04  9.64867501E-04  8.93873733E-04  7.93028168E-04  6.75489373E-04  9.51608669E-04       0.00204237  7.04049727E-04  5.74612718E-04  8.00202339E-04  4.76536879E-04  5.31272695E-04  8.85082610E-04
    8.23362476E-04  8.69013834E-04  6.23734234E-04  7.05585957E-04  5.74010065E-04  3.62739502E-04  2.58003695E-04  2.28447218E-04  4.75244532E-04  4.02050303E-04  3.42002160E-04  2.19999187E-04  1.67211347E-04  1.45992745E-04  5.81665987E-04  7.98915338E-04  8.52252642E-04       0.00125161       0.00163264       0.00229437
         0.00171494       0.00245575       0.00341221       0.00299593       0.00159389       0.00135149       0.00135891  8.20370809E-04  3.61313994E-04  3.33763967E-04  3.33408511E-04  3.98876818E-04  4.11650074E-04  4.58926199E-04  9.86678615E-04  5.68923211E-04  4.40766497E-04  3.40452986E-04  3.69524376E-04  2.81218389E-04
    1.45418639E-04  6.28129497E-04  6.41410937E-04  6.63509033E-04  5.05599494E-04  3.36245964E-04  2.21076031E-04  2.04829836E-04  1.72004050E-04  2.36360290E-04  3.32910467E-04  3.92883066E-04  4.49528393E-04  7.70096121E-04  2.60995174E-04  1.89487788E-04  1.63015012E-04  2.16392317E-04  1.75134634E-04  2.15805450E-04
    7.49279337E-04  5.63266965E-04  2.53530593E-04  2.36080516E-04  1.69762389E-04  1.26578988E-04  1.07443884E-04  8.17989451E-05  4.36112029E-05  3.69987660E-05  5.10875580E-05  4.48275959E-05  3.66819830E-05  7.42954218E-05  9.11848891E-05  1.15728651E-04  3.36616583E-04  5.59757423E-04  6.47557266E-04  6.65399453E-04
         0.00106912  8.33383612E-04  7.17811725E-04  3.05818978E-04  4.41503230E-04  8.51048135E-04  5.61177443E-04  5.07649047E-04  6.55728292E-04  9.48418676E-04  5.96856167E-04  8.76325542E-04  6.57670659E-04       0.00107506  8.87699399E-04  5.97083146E-04       0.00108228  4.90291901E-04  5.74867721E-04  6.92890104E-04
    9.26779135E-04  8.65036775E-04  7.91775068E-04       0.00105002  7.43286543E-04  5.88827205E-04  4.78713615E-04  2.75868113E-04  3.45774588E-04  4.54338793E-04  4.19425447E-04  3.81666224E-04  1.81470911E-04  1.87946148E-04  2.75727395E-04  9.67875244E-04  8.50847879E-04  8.97985088E-04       0.00185399       0.00290597
         0.00222132       0.00302441       0.00336993       0.00372461       0.00178144       0.00101213       0.00154333       0.00137179  4.73889578E-04  3.59535255E-04  4.57986998E-04  3.79135667E-04  3.70525200E-04  3.61425268E-04  9.88838123E-04  6.37452024E-04  5.04028976E-04  3.30736212E-04  3.24850605E-04  2.24970384E-04
    1.38934412E-04  4.16533696E-04  7.45314632E-04  4.53004855E-04  5.25615991E-04  6.11697400E-04  2.46458464E-04  2.32721332E-04  2.56596630E-04  2.29529261E-04  2.66316243E-04  4.59217672E-04  6.96876343E-04  5.76748409E-04  3.57985160E-04  1.06395656E-04  3.00035672E-04  1.28042523E-04  1.16889497E-04  1.59603539E-04
    5.00370645E-04  5.67511657E-04  2.94958652E-04  1.95099385E-04  1.30130359E-04  1.05713522E-04  7.81508234E-05  4.43321272E-05  7.36031307E-05  2.60001466E-05  4.66777777E-05  3.55131666E-05  3.45894950E-05  5.99639132E-05  7.77037794E-05  1.07974666E-04  1.52591324E-04  4.23155562E-04  5.30876397E-04  6.31907248E-04
    8.64483545E-04  5.93982812E-04  4.90744969E-04  4.81630537E-04  3.33564487E-04  6.86630297E-04  7.35792530E-04  4.43177075E-04  6.13146255E-04       0.00128063  8.09589497E-04  9.85129076E-04  7.71640714E-04  9.67814439E-04       0.00119534  8.29278196E-04  9.07484988E-04  7.69206053E-04  5.14066141E-04  4.77134768E-04
         0.00106473  5.16561593E-04  5.36343158E-04  8.54629646E-04       0.00122676  6.20196571E-04  5.90304843E-04  3.70692512E-04  3.33875016E-04  3.87717932E-04  4.25788408E-04  6.27708321E-04  2.99626304E-04  2.15198305E-04  3.14335011E-04       0.00103986       0.00119036  6.29377735E-04       0.00238946       0.00440376
         0.00282125       0.00335254       0.00383788       0.00385845       0.00204330  7.66724765E-04       0.00146299  8.96661312E-04  6.89770648E-04  4.51535478E-04  5.66640178E-04  2.93797180E-04  2.43303215E-04  4.26999841E-04  6.55455021E-04  8.18336443E-04  6.12198326E-04  4.31215486E-04  3.09426017E-04  2.42806709E-04
    1.77823520E-04  2.94646504E-04  4.70023023E-04  4.49512266E-04  6.18125515E-04  8.10784860E-04  3.00052708E-04  2.41280381E-04  2.36958101E-04  3.14927712E-04  2.02368619E-04  4.69637700E-04  6.08048418E-04  5.52470507E-04  3.99587285E-04  1.50443625E-04  1.79422209E-04  1.60029891E-04  7.22871741E-05  1.18671232E-04
    3.62314089E-04  3.89238470E-04  3.60656630E-04  2.23679514E-04  1.08210591E-04  9.22566021E-05  6.16554550E-05  5.53469502E-05  6.60464736E-05  2.59825892E-05  3.79245919E-05  4.50314810E-05  3.80155029E-05  4.59928697E-05  7.97176501E-05  7.53142277E-05  1.03090188E-04  2.77967194E-04  5.26153775E-04  4.61880860E-04
    5.87858634E-04  7.36536124E-04  3.71043777E-04  5.96120936E-04  3.68768914E-04  6.16081120E-04  8.61556106E-04  4.91531565E-04       0.00101169       0.00110968  9.63340967E-04  8.38130265E-04       0.00118504  8.92263924E-04  7.66189059E-04       0.00104045  7.84398641E-04  6.50948530E-04  4.34431829E-04  3.47910079E-04
    6.66471802E-04  3.85886071E-04  3.36481400E-04  9.75983434E-04       0.00124739  8.78721874E-04  8.40618781E-04  8.14167625E-04  3.74726887E-04  4.40880531E-04  4.36758980E-04  7.50204619E-04  4.54697111E-04  3.03735651E-04  3.34818519E-04  6.57400940E-04  9.77092973E-04  8.41856419E-04       0.00140564       0.00340230
         0.00290901       0.00340393       0.00344834       0.00447449       0.00222411  9.82410570E-04  9.98583360E-04       0.00110301       0.00104136  7.65326745E-04  5.99463275E-04  4.96899532E-04  2.57349170E-04  5.00616811E-04  6.16973410E-04  8.03083909E-04  6.54814868E-04  5.25421620E-04  4.33357004E-04  2.86981892E-04
    1.11745134E-04  2.10271654E-04  2.56888328E-04  3.71038705E-04  5.15555862E-04  6.12445379E-04  6.06525234E-04  1.57041952E-04  3.05051817E-04  3.72715418E-04  2.57948300E-04  2.28650243E-04  8.11751935E-04  8.14590592E-04  4.97117306E-04  2.14716621E-04  1.60986210E-04  1.68497126E-04  8.34076984E-05  7.57032689E-05
    4.50342654E-04  3.26574636E-04  5.21370410E-04  2.28565051E-04  1.42333597E-04  1.23774824E-04  7.60900031E-05  5.29459531E-05  4.27099752E-05  3.43621035E-05  2.59418188E-05  4.20691109E-05  4.21172710E-05  3.96254727E-05  4.80142033E-05  6.68398329E-05  9.02652113E-05  1.82652538E-04  2.79631562E-04  3.87753285E-04
    6.12691040E-04  7.98664789E-04  4.20570675E-04  5.20253652E-04  5.59561265E-04  6.20682537E-04  7.35047071E-04  8.07038598E-04       0.00108458  9.20802260E-04       0.00114526  8.83257021E-04  9.29464408E-04  8.48398877E-04  5.76958088E-04  8.75434101E-04  9.02252692E-04  4.52358279E-04  3.79448545E-04  2.26731771E-04
    3.06603522E-04  4.14690571E-04  2.16530920E-04  6.44457637E-04       0.00113021       0.00138870       0.00105837  8.50590926E-04  5.40586820E-04  3.53907122E-04  4.51625355E-04  6.57287931E-04  6.05543472E-04  3.20981371E-04  3.16963013E-04  4.92066626E-04       0.00115815  8.58521306E-04       0.00143232       0.00204673
         0.00536933       0.00313626       0.00613965       0.00508413       0.00278580       0.00150423       0.00152528       0.00140513  9.64555191E-04  8.98277932E-04  7.43653620E-04  6.12341140E-04  3.16390775E-04  3.56553775E-04  7.02812616E-04  4.46533759E-04  6.48237952E-04  6.46500003E-04  5.58781889E-04  2.52884636E-04
    1.30943337E-04  2.09948151E-04  2.05509011E-04  3.23397894E-04  4.87057367E-04  6.81601217E-04       0.00101687  2.93399458E-04  3.87964612E-04  4.35447451E-04  2.77764548E-04  2.17443898E-04  6.90818067E-04  9.73206088E-04  5.03232105E-04  2.96486925E-04  1.70771601E-04  1.18772273E-04  8.27423756E-05  7.65043648E-05
    3.89858938E-04  3.56683077E-04  2.93059162E-04  2.51941613E-04  1.87740365E-04  1.26621997E-04  7.82595637E-05  4.80944379E-05  4.19063509E-05  3.27200354E-05  2.55570212E-05  3.25282101E-05  4.78047315E-05  5.39983834E-05  3.89130509E-05  9.80234890E-05  7.87245577E-05  1.43486610E-04  2.20219256E-04  3.12305025E-04
    6.00258365E-04  6.64876967E-04  6.92230447E-04  3.24737369E-04  7.08028805E-04  6.30098206E-04  4.92473523E-04  5.66245912E-04  9.66194094E-04  8.42815874E-04       0.00101391  6.45825871E-04  7.00531264E-04  7.61469718E-04  5.01868724E-04  5.90384635E-04  9.68777631E-04  4.12454731E-04  2.61798837E-04  2.23303418E-04
    1.74823150E-04  2.27367415E-04  1.72943421E-04  4.04244992E-04       0.00111618       0.00172200       0.00116628  8.24429396E-04  6.21475362E-04  3.26809313E-04  5.48670444E-04  7.93519286E-04  4.13576622E-04  5.21851001E-04  3.99983172E-04  5.66949274E-04  8.78970602E-04       0.00101431       0.00163469       0.00210279
         0.00480644       0.00549552       0.00545272       0.00622334       0.00314005       0.00288262       0.00197143       0.00163464  9.43575636E-04       0.00125484  7.52393434E-04  9.81037064E-04  3.67260249E-04  4.50267859E-04  6.59941777E-04  8.25974633E-04  6.40806591E-04  7.73126266E-04  6.65158627E-04  3.42046661E-04
    2.38133345E-04  1.73957565E-04  2.22028368E-04  2.82823441E-04  3.43204318E-04  6.99114260E-04  9.16457673E-04  5.69713561E-04  2.85193541E-04  4.72544781E-04  2.84196887E-04  2.33115101E-04  3.72921603E-04  9.13717784E-04  7.78228150E-04  3.36819151E-04  3.14051702E-04  1.18408927E-04  9.61832327E-05  9.62450500E-05
    2.68332623E-04  4.38739600E-04  3.41348848E-04  3.46076158E-04  2.14164893E-04  1.73423220E-04  1.11196942E-04  7.13518540E-05  5.11459320E-05  3.69024349E-05  3.28615010E-05  2.02660649E-05  4.60481613E-05  7.46186635E-05  3.35076229E-05  6.30202193E-05  7.62746375E-05  1.10837662E-04  1.38069089E-04  1.69249733E-04
    3.54093221E-04  6.61359532E-04  5.70734704E-04  4.17101748E-04  5.70677217E-04  6.96748831E-04  3.93453257E-04  4.99676113E-04  8.84472332E-04  7.41212980E-04  8.05693240E-04  8.06278391E-04  6.62560286E-04  7.65386841E-04  4.21332924E-04  5.66834394E-04  4.76331554E-04  5.15567790E-04  2.11011522E-04  1.82435546E-04
    8.52110679E-05  8.69536765E-05  1.64211435E-04  2.33273561E-04  6.67228261E-04       0.00176051       0.00135516  8.07074204E-04  7.63542622E-04  3.79735769E-04  6.24179607E-04  7.85312358E-04  6.53357444E-04  8.01208478E-04  7.28078988E-04  6.05718768E-04  9.11115513E-04       0.00111224       0.00194781       0.00315363
         0.00404008       0.00648611       0.00583245       0.00845460       0.00547430       0.00269876       0.00328881       0.00191550       0.00187359       0.00103311       0.00140145       0.00104336  4.87116412E-04  5.42925223E-04  9.19562572E-04       0.00100500  8.47751550E-04  6.27026613E-04  9.57516962E-04  3.03917889E-04
    3.00601809E-04  1.55974516E-04  2.40225219E-04  2.17253062E-04  3.90931445E-04  5.73701675E-04  7.70780931E-04  6.65714519E-04  5.21868476E-04  5.18758083E-04  3.04303790E-04  3.27157441E-04  3.74071124E-04  9.50945637E-04  9.18660268E-04  5.58079897E-04  3.98383432E-04  1.62489733E-04  9.38623982E-05  1.29103299E-04
    2.97293933E-04  5.17810816E-04  5.50963086E-04  3.62834880E-04  2.46785751E-04  2.86051621E-04  9.38683858E-05  9.48489160E-05  4.98977676E-05  4.15490473E-05  2.73497643E-05  1.77872129E-05  3.99903175E-05  4.53921875E-05  4.27197835E-05  4.19409342E-05  1.06141184E-04  7.76997008E-05  1.34138303E-04  1.44438663E-04
    3.10580816E-04  6.33963289E-04  7.37402178E-04  6.24479420E-04  4.44996301E-04  7.24552367E-04  6.58174261E-04  3.66026592E-04  4.82487732E-04  4.48715036E-04  6.56597657E-04  5.88161734E-04  5.99022279E-04  5.49680523E-04  3.40037184E-04  3.65972802E-04  3.56067628E-04  4.08504468E-04  2.24882424E-04  9.49093830E-05
    1.01812066E-04  6.51581252E-05  1.34369993E-04  2.14548658E-04  5.37312575E-04       0.00145936       0.00230202       0.00135184       0.00106292  4.00960013E-04  6.59155550E-04       0.00100609       0.00125709  7.82898051E-04  9.45563266E-04  9.29489880E-04  6.86921526E-04       0.00108149       0.00189027       0.00368768
         0.00309448       0.00680701       0.00793641       0.01097523       0.00604677       0.00508676       0.00349933       0.00333246       0.00264179       0.00161918       0.00175679       0.00137472  7.10741941E-04  7.44987265E-04  7.39536681E-04       0.00104005       0.00138718  7.79473428E-04  6.24614557E-04  4.26014072E-04
    2.05343510E-04  2.36469944E-04  1.45639656E-04  2.98078351E-04  3.68657203E-04  5.04867034E-04  6.56356447E-04  8.31716902E-04  7.27418585E-04  4.28878586E-04  3.17774633E-04  5.24796018E-04  3.90189815E-04  9.50189789E-04  8.33403107E-04  6.63972250E-04  3.82340987E-04  2.60416953E-04  1.26469376E-04  1.10432019E-04
    4.36893664E-04  3.72644697E-04  7.02104339E-04  5.62494038E-04  3.82069874E-04  2.89874068E-04  1.10455287E-04  9.74380279E-05  5.72988459E-05  4.83876345E-05  3.18065211E-05  2.25010388E-05  2.86112434E-05  3.62400858E-05  6.85572511E-05  4.71888330E-05  7.10934714E-05  9.68326710E-05  1.23477622E-04  1.58053897E-04
    3.30360024E-04  4.81171713E-04  7.33684577E-04  6.32039813E-04  4.00119725E-04  8.07983896E-04  5.38745511E-04  3.80858812E-04  2.45776021E-04  4.19185338E-04  3.64977153E-04  5.42968629E-04  5.56538933E-04  5.26991738E-04  3.58943635E-04  5.60178282E-04  4.01132264E-04  3.02040226E-04  2.33934864E-04  1.19159147E-04
    1.01331172E-04  8.82575093E-05  8.22702518E-05  2.49854587E-04  3.26243744E-04  9.30943245E-04       0.00246995       0.00170695  7.85137519E-04  5.49018373E-04  6.08147322E-04       0.00105782       0.00129173       0.00128918  9.11738426E-04       0.00158737  8.18104125E-04       0.00118450       0.00209244       0.00312743
         0.00614685       0.00680069       0.00921465       0.01074962       0.01039065       0.00749426       0.00335723       0.00334270       0.00322643       0.00169778       0.00182919       0.00141743  9.92479994E-04  4.88239126E-04  6.69337120E-04  9.58251456E-04       0.00163464  7.56725958E-04  6.67234076E-04  4.70124220E-04
    2.46080727E-04  2.29473260E-04  1.71698528E-04  2.28144545E-04  3.96279454E-04  6.65254788E-04  8.04919108E-04  6.29554711E-04  7.73790414E-04  4.29801818E-04  4.08212928E-04  4.75912324E-04  6.05090363E-04  8.21312480E-04  9.41419913E-04  5.42784742E-04  6.80906452E-04  2.56380857E-04  1.75618188E-04  1.10554830E-04
    2.94136434E-04  4.08750925E-04  5.86141158E-04  7.83176341E-04  5.13908045E-04  2.99431363E-04  1.61430637E-04  8.99570613E-05  9.72970065E-05  5.78753975E-05  3.58140580E-05  2.90502927E-05  3.64167138E-05  4.89256662E-05  6.28857532E-05  7.11366286E-05  5.31368602E-05  1.26476329E-04  1.19281389E-04  2.00916917E-04
    4.18336801E-04  3.33933778E-04  7.46561089E-04  8.60335895E-04  5.04360122E-04  5.26758997E-04  5.18933939E-04  5.15534728E-04  2.67047698E-04  2.95838157E-04  3.69467147E-04  3.18371245E-04  5.71073306E-04  4.26828744E-04  6.05132231E-04  4.88947957E-04  4.57051837E-04  2.62519874E-04  2.58669683E-04  1.01556581E-04
    9.46065469E-05  8.03525873E-05  9.68804242E-05  1.61177132E-04  3.62048855E-04  6.30980888E-04       0.00173210       0.00163749       0.00122081  7.67984226E-04  7.32856692E-04  9.66345881E-04       0.00186740       0.00205801       0.00101542       0.00165117       0.00123059  8.88163717E-04       0.00182776       0.00247375
         0.00569967       0.00517232       0.00643313       0.00837678       0.01055900       0.00553171       0.00400087       0.00223786       0.00322625       0.00221015       0.00182074       0.00153055       0.00109996  9.01688830E-04  6.00076645E-04       0.00130070       0.00108361       0.00134809  7.95713990E-04  5.50537147E-04
    3.63429750E-04  2.02077778E-04  1.35049153E-04  1.90956932E-04  3.04998730E-04  7.39000746E-04  5.12149321E-04  5.70976483E-04  5.86962689E-04  5.46800976E-04  3.77574869E-04  4.79154800E-04  6.97126098E-04       0.00100588       0.00126847  9.69840772E-04  7.51206049E-04  3.01340682E-04  2.99622538E-04  2.19688934E-04
    4.18283114E-04  5.18675195E-04  6.64436081E-04  7.05068090E-04       0.00107092  4.11127283E-04  2.71429358E-04  1.62568399E-04  1.59027132E-04  5.77654550E-05  5.02171906E-05  4.07902847E-05  5.73236167E-05  4.60509069E-05  5.60526576E-05  8.09363689E-05  6.20323874E-05  9.92191982E-05  1.38193432E-04  2.07586058E-04
    3.34777665E-04  5.12765257E-04  7.07339406E-04       0.00107546  5.70894695E-04  5.10894740E-04  5.38318128E-04  6.24774740E-04  3.82955249E-04  2.72767138E-04  3.37542526E-04  2.56920956E-04  4.53710381E-04  4.67536409E-04  4.76250796E-04  4.82833232E-04  4.69926160E-04  4.25505053E-04  1.96015562E-04  1.19897571E-04
    8.43603565E-05  7.38976993E-05  1.09687229E-04  1.75267787E-04  2.28746111E-04  7.65120941E-04  8.22989777E-04       0.00203503  9.77751143E-04  8.49503890E-04  7.60907847E-04  9.06650886E-04       0.00147649       0.00227753       0.00107444  9.64180628E-04       0.00108820       0.00112070  9.81185886E-04       0.00175258
         0.00323190       0.00699749       0.00515056       0.00670029       0.00778396       0.00571367       0.00442004       0.00226954       0.00391154       0.00241276       0.00157771       0.00155740       0.00148879       0.00105816  4.96029766E-04       0.00115536  9.18326978E-04       0.00114482       0.00100064  5.57235695E-04
    3.72353299E-04  1.80940748E-04  1.53348493E-04  1.97735656E-04  2.51418082E-04  4.07078398E-04  8.09054764E-04  5.60042549E-04  7.76319494E-04  6.86155858E-04  7.10067299E-04  4.76816426E-04  9.56903399E-04       0.00168392       0.00173837       0.00156189  7.43315454E-04  4.50222833E-04  4.18631825E-04  2.77687083E-04
    6.27240465E-04  5.26165258E-04  7.26188996E-04  5.15896865E-04       0.00102223  7.44749300E-04  2.44605603E-04  2.75700213E-04  1.15060353E-04  1.01325043E-04  5.37576820E-05  4.97050235E-05  5.91450510E-05  6.72162143E-05  5.63748600E-05  9.26432447E-05  1.08741366E-04  1.11677164E-04  1.37908181E-04  2.97221099E-04