# File generated by Flopy version 3.6.0 on 02/21/2024 at 09:09:30.
BEGIN griddata
  strt
    INTERNAL  FACTOR  1.0
        15.00000000      15.00000000      15.00000000      15.00000000      15.00000000      15.00000000      15.00000000      15.00000000      15.00000000      15.00000000      15.00000000      15.00000000      15.00000000      15.00000000      15.00000000      15.00000000      15.00000000      15.00000000      15.00000000      15.00000000
        15.00000000      15.00000000      15.00000000      15.00000000      15.00000000      15.00000000      15.00000000      15.00000000      15.00000000      15.00000000      15.00000000      15.00000000      15.00000000      15.00000000      15.00000000      15.00000000      15.00000000      15.00000000      15.00000000      15.00000000
        15.00000000      15.00000000      15.00000000      15.00000000      15.00000000      15.00000000      15.00000000      15.00000000      15.00000000      15.00000000      15.00000000      15.00000000      15.00000000      15.00000000      15.00000000      15.00000000      15.00000000      15.00000000      15.00000000      15.00000000
        15.00000000      15.00000000      15.00000000      15.00000000      15.00000000      15.00000000      15.00000000      15.00000000      15.00000000      15.00000000      15.00000000      15.00000000      15.00000000      15.00000000      15.00000000      15.00000000      15.00000000      15.00000000      15.00000000      15.00000000
        15.00000000      15.00000000      15.00000000      15.00000000      15.00000000      15.00000000      15.00000000      15.00000000      15.00000000      15.00000000      15.00000000      15.00000000      15.00000000      15.00000000      15.00000000      15.00000000      15.00000000      15.00000000      15.00000000      15.00000000
        15.02549654      15.02517728      15.02489908      15.02484817      15.02502792      15.02526155      15.02527237      15.02482379      15.02387072      15.02261055      15.02136248      15.02037718      15.01975267      15.01948355      15.01954097      15.01990457      15.02054685      15.02141648      15.02245848      15.02367032
        15.02515343      15.02710889      15.02976923      15.03332266      15.03788297      15.04349409      15.05011620      15.05759153      15.06567363      15.07413923      15.08286951      15.09186724      15.10127850      15.11137804      15.12240268      15.13427070      15.14638152      15.15766632      15.16698578      15.17379967
        15.17857525      15.18233039      15.18568531      15.18845103      15.19006267      15.19026231      15.18930822      15.18756068      15.18500547      15.18131989      15.17644570      15.17104032      15.16621497      15.16274273      15.16058628      15.15924078      15.15854401      15.15919395      15.16246343      15.16937857
        15.18014064      15.19417267      15.21055543      15.22847778      15.24742795      15.26701112      15.28657589      15.30506628      15.32139088      15.33512563      15.34681961      15.35726322      15.36621329      15.37193706      15.37226641      15.36643599      15.35601041      15.34374458      15.33141922      15.31885179
        15.30476248      15.28835183      15.27013443      15.25146370      15.23352480      15.21699400      15.20251616      15.19110394      15.18376908      15.18070371      15.18082304      15.18200401      15.18183310      15.17861201      15.17219844      15.16399337      15.15594695      15.14949817      15.14528043      15.14337049
        15.04940263      15.04885765      15.04827931      15.04798052      15.04803102      15.04823710      15.04823529      15.04765856      15.04634156      15.04445582      15.04243388      15.04071279      15.03953934      15.03897526      15.03900322      15.03959351      15.04070232      15.04225638      15.04417859      15.04645832
        15.04922295      15.05274737      15.05737962      15.06344697      15.07122408      15.08094600      15.09276163      15.10658835      15.12202913      15.13852717      15.15563136      15.17314183      15.19113484      15.20992038      15.22986400      15.25107059      15.27309122      15.29480503      15.31460893      15.33109229
        15.34392507      15.35396232      15.36221851      15.36888668      15.37343150      15.37539907      15.37493453      15.37247736      15.36811108      15.36147312      15.35247465      15.34210477      15.33229621      15.32476254      15.32000854      15.31754618      15.31700561      15.31905509      15.32528454      15.33717195
        15.35516080      15.37859484      15.40626816      15.43699606      15.46986785      15.50409983      15.53863975      15.57190385      15.60203668      15.62773763      15.64899361      15.66665407      15.68086397      15.68997855      15.69131192      15.68330347      15.66722846      15.64655287      15.62430424      15.60116812
        15.57600062      15.54778354      15.51704352      15.48560860      15.45530701      15.42723681      15.40225855      15.38172172      15.36720901      15.35936353      15.35699494      15.35725352      15.35661106      15.35216919      15.34292963      15.33027127      15.31700177      15.30572270      15.29793627      15.29415288
        15.07176217      15.07104007      15.07016647      15.06953622      15.06930909      15.06935133      15.06930999      15.06876598      15.06744096      15.06538455      15.06299558      15.06080238      15.05919482      15.05834132      15.05827274      15.05897198      15.06039485      15.06246320      15.06509285      15.06826453
        15.07210107      15.07689070      15.08302756      15.09092245      15.10097634      15.11361233      15.12923409      15.14800418      15.16958928      15.19320813      15.21801260      15.24343689      15.26930593      15.29579267      15.32327710      15.35208912      15.38220657      15.41299518      15.44305909      15.47048800
        15.49376514      15.51265067      15.52787713      15.53999311      15.54881394      15.55390664      15.55526064      15.55327069      15.54812539      15.53952295      15.52731493      15.51257034      15.49779864      15.48572823      15.47778842      15.47388872      15.47353735      15.47707145      15.48588979      15.50154564
        15.52465752      15.55464573      15.59024714      15.63011232      15.67307542      15.71806256      15.76376992      15.80836602      15.84955380      15.88523262      15.91446598      15.93767491      15.95538210      15.96668242      15.96923551      15.96103684      15.94248531      15.91665695      15.88716603      15.85575996
        15.82204612      15.78519464      15.74567369      15.70543192      15.66664208      15.63063626      15.59819664      15.57052961      15.54941737      15.53606965      15.52981031      15.52788887      15.52641612      15.52174896      15.51192623      15.49759741      15.48157047      15.46713496      15.45664786      15.45127450
        15.09259582      15.09174334      15.09061605      15.08965109      15.08909392      15.08890383      15.08879091      15.08834044      15.08720008      15.08527962      15.08285691      15.08045266      15.07855511      15.07744929      15.07724186      15.07795164      15.07955150      15.08197245      15.08513377      15.08901175
        15.09371655      15.09952383      15.10683313      15.11609129      15.12777171      15.14242615      15.16067796      15.18299220      15.20928380      15.23876098      15.27027100      15.30282811      15.33588575      15.36934420      15.40346168      15.43869479      15.47545337      15.51378477      15.55297350      15.59125054
        15.62621700      15.65609595      15.68052800      15.69994202      15.71452661      15.72408383      15.72856577      15.72831103      15.72360301      15.71424136      15.69998635      15.68175835      15.66233539      15.64537991      15.63349648      15.62735225      15.62655754      15.63111715      15.64205400      15.66077006
        15.68791244      15.72291326      15.76445396      15.81107773      15.86146029      15.91434349      15.96828434      16.02137658      16.07116051      16.11501696      16.15111217      16.17912824      16.19965357      16.21257774      16.21631151      16.20883205      16.18969304      16.16109728      16.12666838      16.08903538
        16.04876928      16.00549339      15.95967755      15.91325290      15.86858574      15.82717284      15.78960624      15.75664979      15.72990723      15.71103505      15.70017653      15.69521897      15.69243483      15.68783927      15.67867301      15.66460898      15.64787293      15.63191375      15.61973276      15.61319959
        15.11194221      15.11100866      15.10969442      15.10844300      15.10756302      15.10711322      15.10689461      15.10653665      15.10565773      15.10405257      15.10184549      15.09946983      15.09744579      15.09615650      15.09579713      15.09644157      15.09809666      15.10071726      15.10423771      15.10863856
        15.11402069      15.12063795      15.12887244      15.13917214      15.15203385      15.16806888      15.18804154      15.21268534      15.24225410      15.27615499      15.31312189      15.35181440      15.39127851      15.43105618      15.47115292      15.51198689      15.55425340      15.59863846      15.64531263      15.69323308
        15.73984006      15.78200791      15.81770356      15.84649412      15.86861799      15.88417857      15.89324042      15.89614088      15.89325840      15.88452148      15.86959471      15.84906076      15.82559678      15.80354372      15.78679475      15.77713692      15.77462884      15.77916613      15.79150070      15.81287474
        15.84381155      15.88344842      15.93017867      15.98236530      16.03857766      16.09748135      16.15760489      16.21709109      16.27352238      16.32405663      16.36616122      16.39863697      16.42175358      16.43596699      16.44058122      16.43394746      16.41509194      16.38526966      16.34770196      16.30556055
        16.26034656      16.21226998      16.16187451      16.11101218      16.06216300      16.01700878      15.97600404      15.93936424      15.90818933      15.88427264      15.86858796      15.85998642      15.85531036      15.85059424      15.84255141      15.82991573      15.81402305      15.79801039      15.78518839      15.77801783
        15.12986612      15.12889540      15.12746684      15.12600263      15.12484305      15.12413432      15.12377956      15.12347912      15.12286127      15.12164706      15.11981634      15.11766838      15.11568641      15.11431010      15.11381690      15.11434555      15.11595038      15.11862593      15.12233690      15.12708474
        15.13297458      15.14023130      15.14920257      15.16031459      15.17405294      15.19103153      15.21207176      15.23809208      15.26967950      15.30657414      15.34760510      15.39122857      15.43613651      15.48149899      15.52698484      15.57280422      15.61971977      15.66886529      15.72126092      15.77693285
        15.83396215      15.88861089      15.93711494      15.97744857      16.00925108      16.03271981      16.04808901      16.05575970      16.05622048      16.04956551      16.03541065      16.01389746      15.98723661      15.96003458      15.93739824      15.92254301      15.91639519      15.91912667      15.93162279      15.95536282
        15.99078284      16.03597517      16.08842212      16.14609019      16.20748914      16.27135354      16.33632673      16.40071600      16.46228703      16.51821046      16.56551094      16.60212822      16.62770132      16.64291448      16.64793851      16.64180561      16.62342357      16.59326389      16.55391012      16.50869645
        16.45986395      16.40823137      16.35446755      16.30030980      16.24829868      16.20036476      16.15699029      16.11791736      16.08354551      16.05541508      16.03508717      16.02248261      16.01532636      16.01000149      16.00299053      15.99227764      15.97823326      15.96334558      15.95086426      15.94360641
        15.14644565      15.14546902      15.14398886      15.14239073      15.14101492      15.14007031      15.13955927      15.13926891      15.13886709      15.13804332      15.13666591      15.13488870      15.13310397      15.13175433      15.13117417      15.13156333      15.13302912      15.13561729      15.13934471      15.14426804
        15.15053502      15.15831261      15.16788541      15.17964259      15.19404315      15.21166881      15.23332962      15.26003186      15.29262283      15.33121370      15.37489069      15.42209122      15.47127866      15.52131720      15.57153534      15.62181770      15.67276822      15.72570272      15.78228390      15.84365999
        15.90914406      15.97537166      16.03739982      16.09121599      16.13504926      16.16866575      16.19233452      16.20653858      16.21190105      16.20874064      16.19673559      16.17560756      16.14681962      16.11471679      16.08527764      16.06326057      16.05083221      16.04888761      16.05917430      16.08465913
        16.12660365      16.18005385      16.24020292      16.30429791      16.37095619      16.43925067      16.50816348      16.57631283      16.64176077      16.70186535      16.75346906      16.79380587      16.82170708      16.83771812      16.84270396      16.83655389      16.81844237      16.78833711      16.74811333      16.70093711
        16.64952865      16.59526251      16.53896500      16.48223455      16.42761591      16.37734330      16.33213560      16.29146889      16.25501349      16.22371095      16.19929886      16.18264033      16.17252847      16.16598876      16.15956342      16.15073733      16.13900238      16.12602469      16.11467172      16.10782622
        15.16176085      15.16079527      15.15930813      15.15764622      15.15612532      15.15498559      15.15431331      15.15398792      15.15373734      15.15325450      15.15233726      15.15101058      15.14954718      15.14834119      15.14774474      15.14799861      15.14925305      15.15160355      15.15513857      15.16004065
        15.16663828      15.17490987      15.18501077      15.19728688      15.21218078      15.23023601      15.25220776      15.27910291      15.31192608      15.35112047      15.39611746      15.44550490      15.49767780      15.55132043      15.60550235      15.65975564      15.71434704      15.77049148      15.83019193      15.89553164
        15.96728567      16.04332796      16.11852033      16.18704595      16.24505928      16.29114888      16.32524921      16.34784392      16.35970109      16.36143291      16.35293816      16.33366251      16.30418142      16.26800731      16.23132573      16.20016064      16.17799908      16.16667172      16.16965043      16.19443279
        16.24788697      16.31532104      16.38692729      16.45922591      16.53157758      16.60394034      16.67598915      16.74685143      16.81499581      16.87809468      16.93303791      16.97658609      17.00672084      17.02349296      17.02815047      17.02144986      17.00314973      16.97304000      16.93236533      16.88391376
        16.83063057      16.77435327      16.71608381      16.65726086      16.60035053      16.54788854      16.50101398      16.45921113      16.42155180      16.38817352      16.36053765      16.34011884      16.32679256      16.31845901      16.31199372      16.30464395      16.29520137      16.28448557      16.27476430      16.26870925
        15.17589315      15.17494343      15.17347316      15.17179922      15.17019995      15.16891636      15.16809366      15.16769897      15.16753221      15.16731553      15.16681502      15.16595909      15.16489961      15.16394522      15.16342263      15.16357923      15.16457559      15.16651947      15.16954638      15.17407029
        15.18118634      15.19009568      15.20072078      15.21340451      15.22862464      15.24691408      15.26895877      15.29570145      15.32820179      15.36715322      15.41234981      15.46265027      15.51653160      15.57264081      15.62992512      15.68763642      15.74561870      15.80473774      15.86700065      15.93508873
        16.01111797      16.09468834      16.18154062      16.26483955      16.33848213      16.39914744      16.44586623      16.47888697      16.49906176      16.50732585      16.50394973      16.48832648      16.46017245      16.42167317      16.37830160      16.33653444      16.30058039      16.27233581      16.25644567      16.27028497
        16.34947441      16.44244102      16.53117458      16.61370318      16.69197297      16.76779878      16.84201128      16.91446041      16.98411402      17.04903409      17.10632279      17.15250834      17.18478876      17.20241798      17.20660765      17.19885490      17.17970197      17.14910934      17.10789779      17.05841159
        17.00362266      16.94572134      16.88588693      16.82537542      16.76645735      16.71188233      16.66331586      16.62052911      16.58224456      16.54777374      16.51793373      16.49436169      16.47783841      16.46726587      16.46009658      16.45359293      16.44606229      16.43756132      16.42965972      16.42460818
        15.18892538      15.18798687      15.18653696      15.18487845      15.18325237      15.18187744      15.18092828      15.18044513      15.18030362      15.18027241      15.18011697      15.17970650      15.17908969      15.17847724      15.17813573      15.17828215      15.17903764      15.18042128      15.18240085      15.18542717
        15.19410277      15.20407380      15.21524599      15.22818973      15.24352892      15.26183924      15.28374755      15.31009374      15.34190809      15.38003935      15.42460829      15.47480160      15.52928323      15.58677736      15.64625117      15.70682339      15.76794965      15.82998571      15.89462654      15.96475289
        16.04346323      16.13213695      16.22823219      16.32507070      16.41477751      16.49170122      16.55330742      16.59917357      16.63002185      16.64702666      16.65090793      16.64125605      16.61714846      16.57922208      16.53137771      16.47940095      16.42680488      16.37216359      16.31298417      16.27109991
        16.42657589      16.56659874      16.67830959      16.77165258      16.85491186      16.93289509      17.00791514      17.08063841      17.15054991      17.21610749      17.27470580      17.32284034      17.35707597      17.37568436      17.37939086      17.37014856      17.34937518      17.31753203      17.27530724      17.22466423
        17.16847743      17.10917907      17.04811235      16.98633072      16.92577363      16.86923364      16.81890155      16.77506758      16.73641684      16.70158304      16.67053985      16.64463620      16.62521789      16.61216856      16.60370396      16.59733616      16.59111080      16.58446812      16.57828567      16.57427588
        15.20093284      15.19999482      15.19855246      15.19691291      15.19529068      15.19387032      15.19282766      15.19225355      15.19209469      15.19217597      15.19228448      15.19226399      15.19209048      15.19188410      15.19184114      15.19213278      15.19282215      15.19374630      15.19411753      15.19091663
        15.20590205      15.21741227      15.22893837      15.24186360      15.25704777      15.27513709      15.29671441      15.32249986      15.35343293      15.39042669      15.43385896      15.48324202      15.53747383      15.59541723      15.65616351      15.71887228      15.78276052      15.84764628      15.91467201      15.98653066
        16.06684386      16.15848910      16.26105766      16.36922947      16.47443065      16.56879301      16.64763732      16.70925090      16.75379625      16.78242941      16.79627542      16.79535875      16.77853971      16.74516414      16.69731745      16.63959727      16.57432013      16.49306142      16.36008885      16.05306188
        16.49798860      16.70699065      16.83833988      16.93800504      17.02300978      17.10081605      17.17482326      17.24629502      17.31511888      17.38008177      17.43887389      17.48809852      17.52389651      17.54353594      17.54686545      17.53588059      17.51280943      17.47887589      17.43495733      17.38279346
        17.32511625      17.26450925      17.20246442      17.13983160      17.07809740      17.01987082      16.96774986      16.92268672      16.88364594      16.84885170      16.81742690      16.79008651      16.76831479      16.75279501      16.74259748      16.73568747      16.73006345      16.72472454      16.71993739      16.71685201
        15.21197339      15.21102480      15.20956992      15.20793613      15.20632840      15.20489673      15.20379648      15.20314320      15.20294200      15.20307659      15.20336980      15.20366606      15.20390086      15.20412792      15.20448544      15.20512371      15.20614826      15.20760315      15.20953333      15.21253486
        15.22134757      15.23126137      15.24214015      15.25458816      15.26931071      15.28693912      15.30801423      15.33313864      15.36312427      15.39887081      15.44092897      15.48909357      15.54249650      15.60015049      15.66131588      15.72534133      15.79142801      15.85897934      15.92847466      16.00210180
        16.08355181      16.17674136      16.28337118      16.40035374      16.51974703      16.63215467      16.73047086      16.81100685      16.87273503      16.91634839      16.94318597      16.95388058      16.94762371      16.92318911      16.88149126      16.82715749      16.76627266      16.70198207      16.63551845      16.59164464
        16.75987756      16.90765162      17.02273821      17.11631758      17.19759616      17.27218116      17.34310865      17.41170627      17.47804946      17.54115110      17.59895771      17.64826529      17.68502060      17.70563014      17.70881817      17.69613757      17.67036764      17.63363039      17.58729415      17.53309327
        17.47365094      17.41165464      17.34874650      17.28560519      17.22318892      17.16368336      17.10986770      17.06337556      17.02371900      16.98903963      16.95776588      16.92980220      16.90636051      16.88860991      16.87644128      16.86842280      16.86270397      16.85802610      16.85417194      16.85178001
        15.22209040      15.22112701      15.21964307      15.21799497      15.21639632      15.21497155      15.21384402      15.21312981      15.21287430      15.21301591      15.21342030      15.21394976      15.21452613      15.21516379      15.21596011      15.21705318      15.21859062      15.22074644      15.22380794      15.22838246
        15.23560574      15.24438809      15.25450255      15.26629799      15.28037847      15.29737287      15.31781517      15.34222252      15.37127165      15.40579226      15.44642734      15.49319454      15.54543548      15.60229282      15.66318440      15.72772944      15.79534036      15.86525129      15.93733113      16.01306201
        16.09581731      16.19005062      16.29922064      16.42283417      16.55476256      16.68517667      16.80472229      16.90717958      16.98961683      17.05166146      17.09450843      17.11943148      17.12643878      17.11451204      17.08402647      17.03971043      16.99083276      16.94825975      16.92394731      16.93866687
        17.02845487      17.12968074      17.22198099      17.30359759      17.37737100      17.44626259      17.51230977      17.57655889      17.63911396      17.69913987      17.75480256      17.80313588      17.84009899      17.86148884      17.86484844      17.85083328      17.82232587      17.78232135      17.73291180      17.67607115
        17.61442207      17.55076134      17.48690905      17.42344336      17.36078490      17.30048950      17.24521655      17.19716008      17.15655369      17.12178617      17.09085798      17.06286687      17.03844820      17.01888256      17.00471709      16.99519134      16.98877475      16.98412948      16.98070196      16.97871726
        15.23132647      15.23035464      15.22883521      15.22715221      15.22554381      15.22412428      15.22298448      15.22222351      15.22190704      15.22201845      15.22246720      15.22314278      15.22397163      15.22495113      15.22615294      15.22770082      15.22975166      15.23250578      15.23623929      15.24131670
        15.24806456      15.25622014      15.26572851      15.27689327      15.29028411      15.30655569      15.32627874      15.34993639      15.37809088      15.41147192      15.45075073      15.49611098      15.54707555      15.60288704      15.66306935      15.72751105      15.79599747      15.86789009      15.94265774      16.02102741
        16.10576552      16.20139696      16.31261899      16.44141386      16.58421814      16.73197607      16.87373617      17.00052768      17.10686038      17.19059602      17.25224830      17.29354975      17.31560659      17.31821677      17.30163675      17.27005339      17.23345080      17.20519214      17.19792601      17.22192701
        17.28123569      17.35370018      17.42632983      17.49501176      17.55967888      17.62143733      17.68137023      17.74014660      17.79783215      17.85372144      17.90619148      17.95253975      17.98889397      18.01073023      18.01453766      17.99975085      17.96885527      17.92545049      17.87247982      17.81239814
        17.74798410      17.68219754      17.61709278      17.55325416      17.49062943      17.43001484      17.37363068      17.32398128      17.28206700      17.24680815      17.21609666      17.18837590      17.16355776      17.14268651      17.12670133      17.11547928      17.10792917      17.10279539      17.09933625      17.09748001
        15.23972787      15.23876251      15.23721089      15.23547360      15.23382491      15.23238792      15.23123000      15.23042480      15.23004029      15.23009125      15.23052660      15.23126613      15.23225091      15.23347667      15.23500163      15.23693419      15.23941904      15.24263660      15.24680264      15.25213226
        15.25874714      15.26658341      15.27567466      15.28631431      15.29905642      15.31458883      15.33354794      15.35643694      15.38374606      15.41610286      15.45416516      15.49823769      15.54800220      15.60277549      15.66211855      15.72611613      15.79498158      15.86846516      15.94595395      16.02753727
        16.11520797      16.21317074      16.32680912      16.46014764      16.61244227      16.77643871      16.94055966      17.09327956      17.22609755      17.33439035      17.41729702      17.47658884      17.51450727      17.53208851      17.52985889      17.51102310      17.48439418      17.46308247      17.45908853      17.47863053
        17.52010575      17.57321040      17.62994241      17.68650305      17.74177818      17.79581680      17.84898216      17.90158186      17.95362093      18.00452862      18.05291370      18.09636327      18.13127953      18.15308870      18.15749695      18.14260875      18.11000777      18.06345886      18.00671117      17.94288367
        17.87508698      17.80653698      17.73961036      17.67504027      17.61243943      17.55182160      17.49469735      17.44354339      17.40002278      17.36378000      17.33291711      17.30547011      17.28063919      17.25898291      17.24152799      17.22865303      17.21975442      17.21378743      17.20995631      17.20800608
        15.24732850      15.24638773      15.24481421      15.24300668      15.24128089      15.23978822      15.23858803      15.23772869      15.23726727      15.23723481      15.23761139      15.23834531      15.23939620      15.24076662      15.24251084      15.24472519      15.24753622      15.25109579      15.25556934      15.26109484
        15.26772636      15.27543878      15.28428443      15.29453525      15.30672348      15.32155969      15.33975455      15.36187535      15.38839398      15.41985762      15.45689097      15.49988764      15.54867439      15.60262862      15.66128315      15.72480400      15.79378041      15.86851115      15.94864657      16.03390712
        16.12549403      16.22699606      16.34397434      16.48192274      16.64275581      16.82168312      17.00754936      17.18684378      17.34789083      17.48298362      17.58911948      17.66748302      17.72125864      17.75300107      17.76398601      17.75653907      17.73746738      17.71838827      17.71099648      17.72141364
        17.74854428      17.78649739      17.82982658      17.87528820      17.92140584      17.96763373      18.01381043      18.05990615      18.10583582      18.15115931      18.19474719      18.23451317      18.26720920      18.28843288      18.29344417      18.27912161      18.24576151      18.19671590      18.13630216      18.06837309
        17.99653785      17.92440054      17.85478708      17.78876042      17.72580015      17.66522658      17.60767196      17.55522233      17.50995220      17.47228712      17.44080691      17.41342524      17.38876587      17.36678609      17.34832480      17.33405360      17.32382277      17.31687975      17.31248415      17.31029668
        15.25413045      15.25323166      15.25165364      15.24977029      15.24793587      15.24634609      15.24507044      15.24413895      15.24359048      15.24345856      15.24374371      15.24441803      15.24545905      15.24687965      15.24873646      15.25111964      15.25414102      15.25792997      15.26262216      15.26832076
        15.27505088      15.28277875      15.29153407      15.30154744      15.31331456      15.32755024      15.34503155      15.36641667      15.39221224      15.42292295      15.45913907      15.50132224      15.54943829      15.60292789      15.66125067      15.72453076      15.79360430      15.86934951      15.95196590      16.04116987