# File generated by Flopy version 3.6.0 on 02/21/2024 at 09:09:29.
BEGIN options
  PRINT_OPTION  summary
  COMPLEXITY  complex
END options

BEGIN linear
  LINEAR_ACCELERATION  bicgstab
END linear

