# File generated by Flopy version 3.6.0 on 02/19/2024 at 18:10:50.
BEGIN options
  TIME_UNITS  seconds
END options

BEGIN dimensions
  NPER  1460
END dimensions

BEGIN perioddata
   21600.00000000  1       1.00000000
   21600.00000000  1       1.00000000
   21600.00000000  1       1.00000000
   21600.00000000  1       1.00000000
   21600.00000000  1       1.00000000
   21600.00000000  1       1.00000000
   21600.00000000  1       1.00000000
   21600.00000000  1       1.00000000
   21600.00000000  1       1.00000000
   21600.00000000  1       1.00000000
   21600.00000000  1       1.00000000
   21600.00000000  1       1.00000000
   21600.00000000  1       1.00000000
   21600.00000000  1       1.00000000
   21600.00000000  1       1.00000000
   21600.00000000  1       1.00000000
   21600.00000000  1       1.00000000
   21600.00000000  1       1.00000000
   21600.00000000  1       1.00000000
   21600.00000000  1       1.00000000
   21600.00000000  1       1.00000000
   21600.00000000  1       1.00000000
   21600.00000000  1       1.00000000
   21600.00000000  1       1.00000000
   21600.00000000  1       1.00000000
   21600.00000000  1       1.00000000
   21600.00000000  1       1.00000000
   21600.00000000  1       1.00000000
   21600.00000000  1       1.00000000
   21600.00000000  1       1.00000000
   21600.00000000  1       1.00000000
   21600.00000000  1       1.00000000
   21600.00000000  1       1.00000000
   21600.00000000  1       1.00000000
   21600.00000000  1       1.00000000
   21600.00000000  1       1.00000000
   21600.00000000  1       1.00000000
   21600.00000000  1       1.00000000
   21600.00000000  1       1.00000000
   21600.00000000  1       1.00000000
   21600.00000000  1       1.00000000
   21600.00000000  1       1.00000000
   21600.00000000  1       1.00000000
   21600.00000000  1       1.00000000
   21600.00000000  1       1.00000000
   21600.00000000  1       1.00000000
   21600.00000000  1       1.00000000
   21600.00000000  1       1.00000000
   21600.00000000  1       1.00000000
   21600.00000000  1       1.00000000
   21600.00000000  1       1.00000000
   21600.00000000  1       1.00000000
   21600.00000000  1       1.00000000
   21600.00000000  1       1.00000000
   21600.00000000  1       1.00000000
   21600.00000000  1       1.00000000
   21600.00000000  1       1.00000000
   21600.00000000  1       1.00000000
   21600.00000000  1       1.00000000
   21600.00000000  1       1.00000000
   21600.00000000  1       1.00000000
   21600.00000000  1       1.00000000
   21600.00000000  1       1.00000000
   21600.00000000  1       1.00000000
   21600.00000000  1       1.00000000
   21600.00000000  1       1.00000000
   21600.00000000  1       1.00000000
   21600.00000000  1       1.00000000
   21600.00000000  1       1.00000000
   21600.00000000  1       1.00000000
   21600.00000000  1       1.00000000
   21600.00000000  1       1.00000000
   21600.00000000  1       1.00000000
   21600.00000000  1       1.00000000
   21600.00000000  1       1.00000000
   21600.00000000  1       1.00000000
   21600.00000000  1       1.00000000
   21600.00000000  1       1.00000000
   21600.00000000  1       1.00000000
   21600.00000000  1       1.00000000
   21600.00000000  1       1.00000000
   21600.00000000  1       1.00000000
   21600.00000000  1       1.00000000
   21600.00000000  1       1.00000000
   21600.00000000  1       1.00000000
   21600.00000000  1       1.00000000
   21600.00000000  1       1.00000000
   21600.00000000  1       1.00000000
   21600.00000000  1       1.00000000
   21600.00000000  1       1.00000000
   21600.00000000  1       1.00000000
   21600.00000000  1       1.00000000
   21600.00000000  1       1.00000000
   21600.00000000  1       1.00000000
   21600.00000000  1       1.00000000
   21600.00000000  1       1.00000000
   21600.00000000  1       1.00000000
   21600.00000000  1       1.00000000
   21600.00000000  1       1.00000000
   21600.00000000  1       1.00000000
   21600.00000000  1       1.00000000
   21600.00000000  1       1.00000000
   21600.00000000  1       1.00000000
   21600.00000000  1       1.00000000
   21600.00000000  1       1.00000000
   21600.00000000  1       1.00000000
   21600.00000000  1       1.00000000
   21600.00000000  1       1.00000000
   21600.00000000  1       1.00000000
   21600.00000000  1       1.00000000
   21600.00000000  1       1.00000000
   21600.00000000  1       1.00000000
   21600.00000000  1       1.00000000
   21600.00000000  1       1.00000000
   21600.00000000  1       1.00000000
   21600.00000000  1       1.00000000
   21600.00000000  1       1.00000000
   21600.00000000  1       1.00000000
   21600.00000000  1       1.00000000
   21600.00000000  1       1.00000000
   21600.00000000  1       1.00000000
   21600.00000000  1       1.00000000
   21600.00000000  1       1.00000000
   21600.00000000  1       1.00000000
   21600.00000000  1       1.00000000
   21600.00000000  1       1.00000000
   21600.00000000  1       1.00000000
   21600.00000000  1       1.00000000
   21600.00000000  1       1.00000000
   21600.00000000  1       1.00000000
   21600.00000000  1       1.00000000
   21600.00000000  1       1.00000000
   21600.00000000  1       1.00000000
   21600.00000000  1       1.00000000
   21600.00000000  1       1.00000000
   21600.00000000  1       1.00000000
   21600.00000000  1       1.00000000
   21600.00000000  1       1.00000000
   21600.00000000  1       1.00000000
   21600.00000000  1       1.00000000
   21600.00000000  1       1.00000000
   21600.00000000  1       1.00000000
   21600.00000000  1       1.00000000
   21600.00000000  1       1.00000000
   21600.00000000  1       1.00000000
   21600.00000000  1       1.00000000
   21600.00000000  1       1.00000000
   21600.00000000  1       1.00000000
   21600.00000000  1       1.00000000
   21600.00000000  1       1.00000000
   21600.00000000  1       1.00000000
   21600.00000000  1       1.00000000
   21600.00000000  1       1.00000000
   21600.00000000  1       1.00000000
   21600.00000000  1       1.00000000
   21600.00000000  1       1.00000000
   21600.00000000  1       1.00000000
   21600.00000000  1       1.00000000
   21600.00000000  1       1.00000000
   21600.00000000  1       1.00000000
   21600.00000000  1       1.00000000
   21600.00000000  1       1.00000000
   21600.00000000  1       1.00000000
   21600.00000000  1       1.00000000
   21600.00000000  1       1.00000000
   21600.00000000  1       1.00000000
   21600.00000000  1       1.00000000
   21600.00000000  1       1.00000000
   21600.00000000  1       1.00000000
   21600.00000000  1       1.00000000
   21600.00000000  1       1.00000000
   21600.00000000  1       1.00000000
   21600.00000000  1       1.00000000
   21600.00000000  1       1.00000000
   21600.00000000  1       1.00000000
   21600.00000000  1       1.00000000
   21600.00000000  1       1.00000000
   21600.00000000  1       1.00000000
   21600.00000000  1       1.00000000
   21600.00000000  1       1.00000000
   21600.00000000  1       1.00000000
   21600.00000000  1       1.00000000
   21600.00000000  1       1.00000000
   21600.00000000  1       1.00000000
   21600.00000000  1       1.00000000
   21600.00000000  1       1.00000000
   21600.00000000  1       1.00000000
   21600.00000000  1       1.00000000
   21600.00000000  1       1.00000000
   21600.00000000  1       1.00000000
   21600.00000000  1       1.00000000
   21600.00000000  1       1.00000000
   21600.00000000  1       1.00000000
   21600.00000000  1       1.00000000
   21600.00000000  1       1.00000000
   21600.00000000  1       1.00000000
   21600.00000000  1       1.00000000
   21600.00000000  1       1.00000000
   21600.00000000  1       1.00000000
   21600.00000000  1       1.00000000
   21600.00000000  1       1.00000000
   21600.00000000  1       1.00000000
   21600.00000000  1       1.00000000
   21600.00000000  1       1.00000000
   21600.00000000  1       1.00000000
   21600.00000000  1       1.00000000
   21600.00000000  1       1.00000000
   21600.00000000  1       1.00000000
   21600.00000000  1       1.00000000
   21600.00000000  1       1.00000000
   21600.00000000  1       1.00000000
   21600.00000000  1       1.00000000
   21600.00000000  1       1.00000000
   21600.00000000  1       1.00000000
   21600.00000000  1       1.00000000
   21600.00000000  1       1.00000000
   21600.00000000  1       1.00000000
   21600.00000000  1       1.00000000
   21600.00000000  1       1.00000000
   21600.00000000  1       1.00000000
   21600.00000000  1       1.00000000
   21600.00000000  1       1.00000000
   21600.00000000  1       1.00000000
   21600.00000000  1       1.00000000
   21600.00000000  1       1.00000000
   21600.00000000  1       1.00000000
   21600.00000000  1       1.00000000
   21600.00000000  1       1.00000000
   21600.00000000  1       1.00000000
   21600.00000000  1       1.00000000
   21600.00000000  1       1.00000000
   21600.00000000  1       1.00000000
   21600.00000000  1       1.00000000
   21600.00000000  1       1.00000000
   21600.00000000  1       1.00000000
   21600.00000000  1       1.00000000
   21600.00000000  1       1.00000000
   21600.00000000  1       1.00000000
   21600.00000000  1       1.00000000
   21600.00000000  1       1.00000000
   21600.00000000  1       1.00000000
   21600.00000000  1       1.00000000
   21600.00000000  1       1.00000000
   21600.00000000  1       1.00000000
   21600.00000000  1       1.00000000
   21600.00000000  1       1.00000000
   21600.00000000  1       1.00000000
   21600.00000000  1       1.00000000
   21600.00000000  1       1.00000000
   21600.00000000  1       1.00000000
   21600.00000000  1       1.00000000
   21600.00000000  1       1.00000000
   21600.00000000  1       1.00000000
   21600.00000000  1       1.00000000
   21600.00000000  1       1.00000000
   21600.00000000  1       1.00000000
   21600.00000000  1       1.00000000
   21600.00000000  1       1.00000000
   21600.00000000  1       1.00000000
   21600.00000000  1       1.00000000
   21600.00000000  1       1.00000000
   21600.00000000  1       1.00000000
   21600.00000000  1       1.00000000
   21600.00000000  1       1.00000000
   21600.00000000  1       1.00000000
   21600.00000000  1       1.00000000
   21600.00000000  1       1.00000000
   21600.00000000  1       1.00000000
   21600.00000000  1       1.00000000
   21600.00000000  1       1.00000000
   21600.00000000  1       1.00000000
   21600.00000000  1       1.00000000
   21600.00000000  1       1.00000000
   21600.00000000  1       1.00000000
   21600.00000000  1       1.00000000
   21600.00000000  1       1.00000000
   21600.00000000  1       1.00000000
   21600.00000000  1       1.00000000
   21600.00000000  1       1.00000000
   21600.00000000  1       1.00000000
   21600.00000000  1       1.00000000
   21600.00000000  1       1.00000000
   21600.00000000  1       1.00000000
   21600.00000000  1       1.00000000
   21600.00000000  1       1.00000000
   21600.00000000  1       1.00000000
   21600.00000000  1       1.00000000
   21600.00000000  1       1.00000000
   21600.00000000  1       1.00000000
   21600.00000000  1       1.00000000
   21600.00000000  1       1.00000000
   21600.00000000  1       1.00000000
   21600.00000000  1       1.00000000
   21600.00000000  1       1.00000000
   21600.00000000  1       1.00000000
   21600.00000000  1       1.00000000
   21600.00000000  1       1.00000000
   21600.00000000  1       1.00000000
   21600.00000000  1       1.00000000
   21600.00000000  1       1.00000000
   21600.00000000  1       1.00000000
   21600.00000000  1       1.00000000
   21600.00000000  1       1.00000000
   21600.00000000  1       1.00000000
   21600.00000000  1       1.00000000
   21600.00000000  1       1.00000000
   21600.00000000  1       1.00000000
   21600.00000000  1       1.00000000
   21600.00000000  1       1.00000000
   21600.00000000  1       1.00000000
   21600.00000000  1       1.00000000
   21600.00000000  1       1.00000000
   21600.00000000  1       1.00000000
   21600.00000000  1       1.00000000
   21600.00000000  1       1.00000000
   21600.00000000  1       1.00000000
   21600.00000000  1       1.00000000
   21600.00000000  1       1.00000000
   21600.00000000  1       1.00000000
   21600.00000000  1       1.00000000
   21600.00000000  1       1.00000000
   21600.00000000  1       1.00000000
   21600.00000000  1       1.00000000
   21600.00000000  1       1.00000000
   21600.00000000  1       1.00000000
   21600.00000000  1       1.00000000
   21600.00000000  1       1.00000000
   21600.00000000  1       1.00000000
   21600.00000000  1       1.00000000
   21600.00000000  1       1.00000000
   21600.00000000  1       1.00000000
   21600.00000000  1       1.00000000
   21600.00000000  1       1.00000000
   21600.00000000  1       1.00000000
   21600.00000000  1       1.00000000
   21600.00000000  1       1.00000000
   21600.00000000  1       1.00000000
   21600.00000000  1       1.00000000
   21600.00000000  1       1.00000000
   21600.00000000  1       1.00000000
   21600.00000000  1       1.00000000
   21600.00000000  1       1.00000000
   21600.00000000  1       1.00000000
   21600.00000000  1       1.00000000
   21600.00000000  1       1.00000000
   21600.00000000  1       1.00000000
   21600.00000000  1       1.00000000
   21600.00000000  1       1.00000000
   21600.00000000  1       1.00000000
   21600.00000000  1       1.00000000
   21600.00000000  1       1.00000000
   21600.00000000  1       1.00000000
   21600.00000000  1       1.00000000
   21600.00000000  1       1.00000000
   21600.00000000  1       1.00000000
   21600.00000000  1       1.00000000
   21600.00000000  1       1.00000000
   21600.00000000  1       1.00000000
   21600.00000000  1       1.00000000
   21600.00000000  1       1.00000000
   21600.00000000  1       1.00000000
   21600.00000000  1       1.00000000
   21600.00000000  1       1.00000000
   21600.00000000  1       1.00000000
   21600.00000000  1       1.00000000
   21600.00000000  1       1.00000000
   21600.00000000  1       1.00000000
   21600.00000000  1       1.00000000
   21600.00000000  1       1.00000000
   21600.00000000  1       1.00000000
   21600.00000000  1       1.00000000
   21600.00000000  1       1.00000000
   21600.00000000  1       1.00000000
   21600.00000000  1       1.00000000
   21600.00000000  1       1.00000000
   21600.00000000  1       1.00000000
   21600.00000000  1       1.00000000
   21600.00000000  1       1.00000000
   21600.00000000  1       1.00000000
   21600.00000000  1       1.00000000
   21600.00000000  1       1.00000000
   21600.00000000  1       1.00000000
   21600.00000000  1       1.00000000
   21600.00000000  1       1.00000000
   21600.00000000  1       1.00000000
   21600.00000000  1       1.00000000
   21600.00000000  1       1.00000000
   21600.00000000  1       1.00000000
   21600.00000000  1       1.00000000
   21600.00000000  1       1.00000000
   21600.00000000  1       1.00000000
   21600.00000000  1       1.00000000
   21600.00000000  1       1.00000000
   21600.00000000  1       1.00000000
   21600.00000000  1       1.00000000
   21600.00000000  1       1.00000000
   21600.00000000  1       1.00000000
   21600.00000000  1       1.00000000
   21600.00000000  1       1.00000000
   21600.00000000  1       1.00000000
   21600.00000000  1       1.00000000
   21600.00000000  1       1.00000000
   21600.00000000  1       1.00000000
   21600.00000000  1       1.00000000
   21600.00000000  1       1.00000000
   21600.00000000  1       1.00000000
   21600.00000000  1       1.00000000
   21600.00000000  1       1.00000000
   21600.00000000  1       1.00000000
   21600.00000000  1       1.00000000
   21600.00000000  1       1.00000000
   21600.00000000  1       1.00000000
   21600.00000000  1       1.00000000
   21600.00000000  1       1.00000000
   21600.00000000  1       1.00000000
   21600.00000000  1       1.00000000
   21600.00000000  1       1.00000000
   21600.00000000  1       1.00000000
   21600.00000000  1       1.00000000
   21600.00000000  1       1.00000000
   21600.00000000  1       1.00000000
   21600.00000000  1       1.00000000
   21600.00000000  1       1.00000000
   21600.00000000  1       1.00000000
   21600.00000000  1       1.00000000
   21600.00000000  1       1.00000000
   21600.00000000  1       1.00000000
   21600.00000000  1       1.00000000
   21600.00000000  1       1.00000000
   21600.00000000  1       1.00000000
   21600.00000000  1       1.00000000
   21600.00000000  1       1.00000000
   21600.00000000  1       1.00000000
   21600.00000000  1       1.00000000
   21600.00000000  1       1.00000000
   21600.00000000  1       1.00000000
   21600.00000000  1       1.00000000
   21600.00000000  1       1.00000000
   21600.00000000  1       1.00000000
   21600.00000000  1       1.00000000
   21600.00000000  1       1.00000000
   21600.00000000  1       1.00000000
   21600.00000000  1       1.00000000
   21600.00000000  1       1.00000000
   21600.00000000  1       1.00000000
   21600.00000000  1       1.00000000
   21600.00000000  1       1.00000000
   21600.00000000  1       1.00000000
   21600.00000000  1       1.00000000
   21600.00000000  1       1.00000000
   21600.00000000  1       1.00000000
   21600.00000000  1       1.00000000
   21600.00000000  1       1.00000000
   21600.00000000  1       1.00000000
   21600.00000000  1       1.00000000
   21600.00000000  1       1.00000000
   21600.00000000  1       1.00000000
   21600.00000000  1       1.00000000
   21600.00000000  1       1.00000000
   21600.00000000  1       1.00000000
   21600.00000000  1       1.00000000
   21600.00000000  1       1.00000000
   21600.00000000  1       1.00000000
   21600.00000000  1       1.00000000
   21600.00000000  1       1.00000000
   21600.00000000  1       1.00000000
   21600.00000000  1       1.00000000
   21600.00000000  1       1.00000000
   21600.00000000  1       1.00000000
   21600.00000000  1       1.00000000
   21600.00000000  1       1.00000000
   21600.00000000  1       1.00000000
   21600.00000000  1       1.00000000
   21600.00000000  1       1.00000000
   21600.00000000  1       1.00000000
   21600.00000000  1       1.00000000
   21600.00000000  1       1.00000000
   21600.00000000  1       1.00000000
   21600.00000000  1       1.00000000
   21600.00000000  1       1.00000000
   21600.00000000  1       1.00000000
   21600.00000000  1       1.00000000
   21600.00000000  1       1.00000000
   21600.00000000  1       1.00000000
   21600.00000000  1       1.00000000
   21600.00000000  1       1.00000000
   21600.00000000  1       1.00000000
   21600.00000000  1       1.00000000
   21600.00000000  1       1.00000000
   21600.00000000  1       1.00000000
   21600.00000000  1       1.00000000
   21600.00000000  1       1.00000000
   21600.00000000  1       1.00000000
   21600.00000000  1       1.00000000
   21600.00000000  1       1.00000000
   21600.00000000  1       1.00000000
   21600.00000000  1       1.00000000
   21600.00000000  1       1.00000000
   21600.00000000  1       1.00000000
   21600.00000000  1       1.00000000
   21600.00000000  1       1.00000000
   21600.00000000  1       1.00000000
   21600.00000000  1       1.00000000
   21600.00000000  1       1.00000000
   21600.00000000  1       1.00000000
   21600.00000000  1       1.00000000
   21600.00000000  1       1.00000000
   21600.00000000  1       1.00000000
   21600.00000000  1       1.00000000
   21600.00000000  1       1.00000000
   21600.00000000  1       1.00000000
   21600.00000000  1       1.00000000
   21600.00000000  1       1.00000000
   21600.00000000  1       1.00000000
   21600.00000000  1       1.00000000
   21600.00000000  1       1.00000000
   21600.00000000  1       1.00000000
   21600.00000000  1       1.00000000
   21600.00000000  1       1.00000000
   21600.00000000  1       1.00000000
   21600.00000000  1       1.00000000
   21600.00000000  1       1.00000000
   21600.00000000  1       1.00000000
   21600.00000000  1       1.00000000
   21600.00000000  1       1.00000000
   21600.00000000  1       1.00000000
   21600.00000000  1       1.00000000
   21600.00000000  1       1.00000000
   21600.00000000  1       1.00000000
   21600.00000000  1       1.00000000
   21600.00000000  1       1.00000000
   21600.00000000  1       1.00000000
   21600.00000000  1       1.00000000
   21600.00000000  1       1.00000000
   21600.00000000  1       1.00000000
   21600.00000000  1       1.00000000
   21600.00000000  1       1.00000000
   21600.00000000  1       1.00000000
   21600.00000000  1       1.00000000
   21600.00000000  1       1.00000000
   21600.00000000  1       1.00000000
   21600.00000000  1       1.00000000
   21600.00000000  1       1.00000000
   21600.00000000  1       1.00000000
   21600.00000000  1       1.00000000
   21600.00000000  1       1.00000000
   21600.00000000  1       1.00000000
   21600.00000000  1       1.00000000
   21600.00000000  1       1.00000000
   21600.00000000  1       1.00000000
   21600.00000000  1       1.00000000
   21600.00000000  1       1.00000000
   21600.00000000  1       1.00000000
   21600.00000000  1       1.00000000
   21600.00000000  1       1.00000000
   21600.00000000  1       1.00000000
   21600.00000000  1       1.00000000
   21600.00000000  1       1.00000000
   21600.00000000  1       1.00000000
   21600.00000000  1       1.00000000
   21600.00000000  1       1.00000000
   21600.00000000  1       1.00000000
   21600.00000000  1       1.00000000
   21600.00000000  1       1.00000000
   21600.00000000  1       1.00000000
   21600.00000000  1       1.00000000
   21600.00000000  1       1.00000000
   21600.00000000  1       1.00000000
   21600.00000000  1       1.00000000
   21600.00000000  1       1.00000000
   21600.00000000  1       1.00000000
   21600.00000000  1       1.00000000
   21600.00000000  1       1.00000000
   21600.00000000  1       1.00000000
   21600.00000000  1       1.00000000
   21600.00000000  1       1.00000000
   21600.00000000  1       1.00000000
   21600.00000000  1       1.00000000
   21600.00000000  1       1.00000000
   21600.00000000  1       1.00000000
   21600.00000000  1       1.00000000
   21600.00000000  1       1.00000000
   21600.00000000  1       1.00000000
   21600.00000000  1       1.00000000
   21600.00000000  1       1.00000000
   21600.00000000  1       1.00000000
   21600.00000000  1       1.00000000
   21600.00000000  1       1.00000000
   21600.00000000  1       1.00000000
   21600.00000000  1       1.00000000
   21600.00000000  1       1.00000000
   21600.00000000  1       1.00000000
   21600.00000000  1       1.00000000
   21600.00000000  1       1.00000000
   21600.00000000  1       1.00000000
   21600.00000000  1       1.00000000
   21600.00000000  1       1.00000000
   21600.00000000  1       1.00000000
   21600.00000000  1       1.00000000
   21600.00000000  1       1.00000000
   21600.00000000  1       1.00000000
   21600.00000000  1       1.00000000
   21600.00000000  1       1.00000000
   21600.00000000  1       1.00000000
   21600.00000000  1       1.00000000
   21600.00000000  1       1.00000000
   21600.00000000  1       1.00000000
   21600.00000000  1       1.00000000
   21600.00000000  1       1.00000000
   21600.00000000  1       1.00000000
   21600.00000000  1       1.00000000
   21600.00000000  1       1.00000000
   21600.00000000  1       1.00000000
   21600.00000000  1       1.00000000
   21600.00000000  1       1.00000000
   21600.00000000  1       1.00000000
   21600.00000000  1       1.00000000
   21600.00000000  1       1.00000000
   21600.00000000  1       1.00000000
   21600.00000000  1       1.00000000
   21600.00000000  1       1.00000000
   21600.00000000  1       1.00000000
   21600.00000000  1       1.00000000
   21600.00000000  1       1.00000000
   21600.00000000  1       1.00000000
   21600.00000000  1       1.00000000
   21600.00000000  1       1.00000000
   21600.00000000  1       1.00000000
   21600.00000000  1       1.00000000
   21600.00000000  1       1.00000000
   21600.00000000  1       1.00000000
   21600.00000000  1       1.00000000
   21600.00000000  1       1.00000000
   21600.00000000  1       1.00000000
   21600.00000000  1       1.00000000
   21600.00000000  1       1.00000000
   21600.00000000  1       1.00000000
   21600.00000000  1       1.00000000
   21600.00000000  1       1.00000000
   21600.00000000  1       1.00000000
   21600.00000000  1       1.00000000
   21600.00000000  1       1.00000000
   21600.00000000  1       1.00000000
   21600.00000000  1       1.00000000
   21600.00000000  1       1.00000000
   21600.00000000  1       1.00000000
   21600.00000000  1       1.00000000
   21600.00000000  1       1.00000000
   21600.00000000  1       1.00000000
   21600.00000000  1       1.00000000
   21600.00000000  1       1.00000000
   21600.00000000  1       1.00000000
   21600.00000000  1       1.00000000
   21600.00000000  1       1.00000000
   21600.00000000  1       1.00000000
   21600.00000000  1       1.00000000
   21600.00000000  1       1.00000000
   21600.00000000  1       1.00000000
   21600.00000000  1       1.00000000
   21600.00000000  1       1.00000000
   21600.00000000  1       1.00000000
   21600.00000000  1       1.00000000
   21600.00000000  1       1.00000000
   21600.00000000  1       1.00000000
   21600.00000000  1       1.00000000
   21600.00000000  1       1.00000000
   21600.00000000  1       1.00000000
   21600.00000000  1       1.00000000
   21600.00000000  1       1.00000000
   21600.00000000  1       1.00000000
   21600.00000000  1       1.00000000
   21600.00000000  1       1.00000000
   21600.00000000  1       1.00000000
   21600.00000000  1       1.00000000
   21600.00000000  1       1.00000000
   21600.00000000  1       1.00000000
   21600.00000000  1       1.00000000
   21600.00000000  1       1.00000000
   21600.00000000  1       1.00000000
   21600.00000000  1       1.00000000
   21600.00000000  1       1.00000000
   21600.00000000  1       1.00000000
   21600.00000000  1       1.00000000
   21600.00000000  1       1.00000000
   21600.00000000  1       1.00000000
   21600.00000000  1       1.00000000
   21600.00000000  1       1.00000000
   21600.00000000  1       1.00000000
   21600.00000000  1       1.00000000
   21600.00000000  1       1.00000000
   21600.00000000  1       1.00000000
   21600.00000000  1       1.00000000
   21600.00000000  1       1.00000000
   21600.00000000  1       1.00000000
   21600.00000000  1       1.00000000
   21600.00000000  1       1.00000000
   21600.00000000  1       1.00000000
   21600.00000000  1       1.00000000
   21600.00000000  1       1.00000000
   21600.00000000  1       1.00000000
   21600.00000000  1       1.00000000
   21600.00000000  1       1.00000000
   21600.00000000  1       1.00000000
   21600.00000000  1       1.00000000
   21600.00000000  1       1.00000000
   21600.00000000  1       1.00000000
   21600.00000000  1       1.00000000
   21600.00000000  1       1.00000000
   21600.00000000  1       1.00000000
   21600.00000000  1       1.00000000
   21600.00000000  1       1.00000000
   21600.00000000  1       1.00000000
   21600.00000000  1       1.00000000
   21600.00000000  1       1.00000000
   21600.00000000  1       1.00000000
   21600.00000000  1       1.00000000
   21600.00000000  1       1.00000000
   21600.00000000  1       1.00000000
   21600.00000000  1       1.00000000
   21600.00000000  1       1.00000000
   21600.00000000  1       1.00000000
   21600.00000000  1       1.00000000
   21600.00000000  1       1.00000000
   21600.00000000  1       1.00000000
   21600.00000000  1       1.00000000
   21600.00000000  1       1.00000000
   21600.00000000  1       1.00000000
   21600.00000000  1       1.00000000
   21600.00000000  1       1.00000000
   21600.00000000  1       1.00000000
   21600.00000000  1       1.00000000
   21600.00000000  1       1.00000000
   21600.00000000  1       1.00000000
   21600.00000000  1       1.00000000
   21600.00000000  1       1.00000000
   21600.00000000  1       1.00000000
   21600.00000000  1       1.00000000
   21600.00000000  1       1.00000000
   21600.00000000  1       1.00000000
   21600.00000000  1       1.00000000
   21600.00000000  1       1.00000000
   21600.00000000  1       1.00000000
   21600.00000000  1       1.00000000
   21600.00000000  1       1.00000000
   21600.00000000  1       1.00000000
   21600.00000000  1       1.00000000
   21600.00000000  1       1.00000000
   21600.00000000  1       1.00000000
   21600.00000000  1       1.00000000
   21600.00000000  1       1.00000000
   21600.00000000  1       1.00000000
   21600.00000000  1       1.00000000
   21600.00000000  1       1.00000000
   21600.00000000  1       1.00000000
   21600.00000000  1       1.00000000
   21600.00000000  1       1.00000000
   21600.00000000  1       1.00000000
   21600.00000000  1       1.00000000
   21600.00000000  1       1.00000000
   21600.00000000  1       1.00000000
   21600.00000000  1       1.00000000
   21600.00000000  1       1.00000000
   21600.00000000  1       1.00000000
   21600.00000000  1       1.00000000
   21600.00000000  1       1.00000000
   21600.00000000  1       1.00000000
   21600.00000000  1       1.00000000
   21600.00000000  1       1.00000000
   21600.00000000  1       1.00000000
   21600.00000000  1       1.00000000
   21600.00000000  1       1.00000000
   21600.00000000  1       1.00000000
   21600.00000000  1       1.00000000
   21600.00000000  1       1.00000000
   21600.00000000  1       1.00000000
   21600.00000000  1       1.00000000
   21600.00000000  1       1.00000000
   21600.00000000  1       1.00000000
   21600.00000000  1       1.00000000
   21600.00000000  1       1.00000000
   21600.00000000  1       1.00000000
   21600.00000000  1       1.00000000
   21600.00000000  1       1.00000000
   21600.00000000  1       1.00000000