# File generated by Flopy version 3.5.0 on 02/29/2024 at 16:16:49.
BEGIN options
END options

BEGIN dimensions
  MAXBOUND  5000
END dimensions

BEGIN period  1
  1 1 1.48205926E-08
  1 2 1.44980728E-08
  1 3 1.76187017E-08
  1 4 1.91335291E-08
  1 5 2.17817624E-08
  1 6 2.09513475E-08
  1 7 2.22015271E-08
  1 8 2.15054098E-08
  1 9 2.07529452E-08
  1 10 2.20092987E-08
  1 11 2.48761965E-08
  1 12 2.58254281E-08
  1 13 2.20129748E-08
  1 14 1.56393989E-08
  1 15 1.62216291E-08
  1 16 1.88447988E-08
  1 17 1.82743714E-08
  1 18 1.54728611E-08
  1 19 1.00903423E-08
  1 20 7.66593961E-09
  1 21 7.69786468E-09
  1 22 1.16354280E-08
  1 23 1.44955883E-08
  1 24 1.41542611E-08
  1 25 1.32267943E-08
  1 26 1.19766843E-08
  1 27 1.22078153E-08
  1 28 1.53275198E-08
  1 29 1.70733015E-08
  1 30 1.88362522E-08
  1 31 1.69474529E-08
  1 32 1.27890588E-08
  1 33 1.11008761E-08
  1 34 1.08866238E-08
  1 35 9.34680958E-09
  1 36 5.16614206E-09
  1 37 8.05567172E-10
  1 38 2.38783770E-09
  1 39 3.84223497E-09
  1 40 6.99361013E-09
  1 41 1.21011064E-08
  1 42 1.60131243E-08
  1 43 1.60935139E-08
  1 44 1.70475771E-08
  1 45 1.31060424E-08
  1 46 1.04717196E-08
  1 47 8.34036027E-09
  1 48 1.05470022E-08
  1 49 1.12130115E-08
  1 50 1.40493282E-08
  1 51 1.70008209E-08
  1 52 1.79860740E-08
  1 53 1.51924787E-08
  1 54 1.51505067E-08
  1 55 1.40669402E-08
  1 56 1.68554317E-08
  1 57 1.85119534E-08
  1 58 1.93814656E-08
  1 59 1.84435795E-08
  1 60 1.53514763E-08
  1 61 1.32209558E-08
  1 62 1.20124145E-08
  1 63 1.10300852E-08
  1 64 1.24744497E-08
  1 65 1.43971250E-08
  1 66 1.80139598E-08
  1 67 1.72835811E-08
  1 68 1.57353645E-08
  1 69 1.89426625E-08
  1 70 2.09223792E-08
  1 71 2.05181613E-08
  1 72 2.08892711E-08
  1 73 1.71461868E-08
  1 74 1.51083966E-08
  1 75 1.66383489E-08
  1 76 1.88197603E-08
  1 77 1.82574845E-08
  1 78 1.89663247E-08
  1 79 2.22084808E-08
  1 80 2.61268958E-08
  1 81 2.86655862E-08
  1 82 3.05080972E-08
  1 83 3.16966378E-08
  1 84 3.20996375E-08
  1 85 2.90060433E-08
  1 86 2.13883670E-08
  1 87 1.92930642E-08
  1 88 1.77276380E-08
  1 89 1.58215151E-08
  1 90 1.49412631E-08
  1 91 1.60256651E-08
  1 92 1.50596769E-08
  1 93 1.59541593E-08
  1 94 1.68615370E-08
  1 95 1.73615278E-08
  1 96 1.22884704E-08
  1 97 1.26971494E-08
  1 98 1.36166749E-08
  1 99 1.39262784E-08
  1 100 1.34542177E-08
  1 101 2.02314511E-08
  1 102 2.34503965E-08
  1 103 2.26398663E-08
  1 104 2.47126036E-08
  1 105 2.44201012E-08
  1 106 2.34156954E-08
  1 107 2.24881996E-08
  1 108 2.41278782E-08
  1 109 2.47900031E-08
  1 110 2.42916499E-08
  1 111 1.92534128E-08
  1 112 1.80234939E-08
  1 113 1.68646821E-08
  1 114 1.68857694E-08
  1 115 1.29614942E-08
  1 116 1.12253710E-08
  1 117 1.03239538E-08
  1 118 9.82530589E-09
  1 119 9.76896541E-09
  1 120 1.32399998E-08
  1 121 1.19204709E-08
  1 122 1.08149074E-08
  1 123 1.29500504E-08
  1 124 1.58615255E-08
  1 125 1.73280914E-08
  1 126 1.77321746E-08
  1 127 1.70890300E-08
  1 128 1.46137772E-08
  1 129 1.23844607E-08
  1 130 1.18941720E-08
  1 131 9.08097097E-09
  1 132 7.11220815E-09
  1 133 3.85221505E-09
  1 134 1.03129716E-09
  1 135 3.70879030E-10
  1 136 2.36061561E-09
  1 137 5.57905915E-09
  1 138 1.03762859E-08
  1 139 9.94535425E-09
  1 140 9.48938301E-09
  1 141 1.08036437E-08
  1 142 1.16876336E-08
  1 143 9.77827893E-09
  1 144 6.86135462E-09
  1 145 7.12233755E-09
  1 146 8.52960359E-09
  1 147 1.25401213E-08
  1 148 1.64682581E-08
  1 149 1.47037355E-08
  1 150 1.12430835E-08
  1 151 1.29954153E-08
  1 152 1.30733439E-08
  1 153 1.38420612E-08
  1 154 1.42637822E-08
  1 155 1.56961019E-08
  1 156 1.28746575E-08
  1 157 1.13788167E-08
  1 158 1.02368181E-08
  1 159 1.02784197E-08
  1 160 9.16753280E-09
  1 161 1.22987412E-08
  1 162 1.42127755E-08
  1 163 1.75102377E-08
  1 164 1.80204564E-08
  1 165 1.75101153E-08
  1 166 1.62033756E-08
  1 167 1.26051724E-08
  1 168 1.05308804E-08
  1 169 1.42265649E-08
  1 170 1.41952931E-08
  1 171 1.40090437E-08
  1 172 1.45761337E-08
  1 173 1.60023007E-08
  1 174 1.63119028E-08
  1 175 1.71084084E-08
  1 176 2.16176668E-08
  1 177 2.70439472E-08
  1 178 2.81009800E-08
  1 179 3.00661088E-08
  1 180 2.86443840E-08
  1 181 2.76611340E-08
  1 182 2.47959264E-08
  1 183 2.27043796E-08
  1 184 1.99052554E-08
  1 185 1.65693879E-08
  1 186 1.28748467E-08
  1 187 1.22918456E-08
  1 188 1.24761355E-08
  1 189 1.53596671E-08
  1 190 1.73370063E-08
  1 191 1.96063943E-08
  1 192 1.76410124E-08
  1 193 1.05537127E-08
  1 194 7.61433675E-09
  1 195 1.01045467E-08
  1 196 1.42363739E-08
  1 197 1.64740038E-08
  1 198 1.48883868E-08
  1 199 8.81956663E-09
  1 200 3.86224137E-09
  1 201 2.30654690E-08
  1 202 2.52949667E-08
  1 203 2.60308159E-08
  1 204 2.47096401E-08
  1 205 2.22331020E-08
  1 206 2.31176109E-08
  1 207 2.30990060E-08
  1 208 1.99712482E-08
  1 209 1.90501369E-08
  1 210 1.75884065E-08
  1 211 1.63913226E-08
  1 212 1.33538970E-08
  1 213 1.14056539E-08
  1 214 1.23207767E-08
  1 215 1.26602667E-08
  1 216 1.18014622E-08
  1 217 1.40797361E-08
  1 218 1.08462341E-08
  1 219 8.74036409E-09
  1 220 8.89007389E-09
  1 221 1.43446957E-08
  1 222 1.59441008E-08
  1 223 1.63984967E-08
  1 224 1.68552264E-08
  1 225 1.72038246E-08
  1 226 1.27562884E-08
  1 227 8.73671792E-09
  1 228 4.28548241E-09
  1 229 4.20787210E-09
  1 230 3.33378326E-09
  1 231 2.08757101E-09
  1 232 5.19286535E-10
  1 233 5.97176311E-10
  1 234 4.74465863E-10
  1 235 4.17736957E-09
  1 236 4.75478848E-09
  1 237 6.30691425E-09
  1 238 9.01882207E-09
  1 239 1.16872761E-08
  1 240 1.07683578E-08
  1 241 6.51496241E-09
  1 242 5.03609637E-09
  1 243 8.41476874E-09
  1 244 9.25250628E-09
  1 245 1.10933172E-08
  1 246 9.23771689E-09
  1 247 7.30306898E-09
  1 248 7.76799471E-09
  1 249 1.07778466E-08
  1 250 1.25213455E-08
  1 251 1.31436258E-08
  1 252 1.36795179E-08
  1 253 1.32749581E-08
  1 254 9.36131973E-09
  1 255 1.01444507E-08
  1 256 1.20375926E-08
  1 257 1.21852193E-08
  1 258 1.45209829E-08
  1 259 1.61191997E-08
  1 260 1.66317846E-08
  1 261 1.45903825E-08
  1 262 1.50773308E-08
  1 263 1.38243987E-08
  1 264 1.00438415E-08
  1 265 8.62334208E-09
  1 266 1.16917890E-08
  1 267 1.25970993E-08
  1 268 1.44631752E-08
  1 269 1.35144926E-08
  1 270 1.47963370E-08
  1 271 1.68144335E-08
  1 272 1.90100900E-08
  1 273 2.30303373E-08
  1 274 2.67662584E-08
  1 275 2.39984477E-08
  1 276 2.33394087E-08
  1 277 2.50602019E-08
  1 278 2.53463744E-08
  1 279 2.28766036E-08
  1 280 2.12102550E-08
  1 281 1.83443412E-08
  1 282 1.42012124E-08
  1 283 1.23719880E-08
  1 284 1.43512128E-08
  1 285 1.27298310E-08
  1 286 1.47310662E-08
  1 287 1.64503471E-08
  1 288 1.72521861E-08
  1 289 1.45524746E-08
  1 290 1.10814734E-08
  1 291 8.22986292E-09
  1 292 9.80286202E-09
  1 293 1.17542467E-08
  1 294 1.66623126E-08
  1 295 1.63739677E-08
  1 296 1.39244179E-08
  1 297 6.58097732E-09
  1 298 2.43037215E-09
  1 299 1.96091447E-09
  1 300 1.02626167E-09
  1 301 2.24524928E-08
  1 302 1.87583318E-08
  1 303 2.23752529E-08
  1 304 2.30054962E-08
  1 305 1.84839230E-08
  1 306 1.66184550E-08
  1 307 1.70862110E-08
  1 308 1.42482120E-08
  1 309 1.11900145E-08
  1 310 1.03401385E-08
  1 311 1.28900129E-08
  1 312 1.27201844E-08
  1 313 1.31525874E-08
  1 314 1.35599975E-08
  1 315 1.09004237E-08
  1 316 6.72700649E-09
  1 317 6.51848759E-09
  1 318 1.07956031E-08
  1 319 1.53346116E-08
  1 320 1.50966476E-08
  1 321 1.54161456E-08
  1 322 1.53316734E-08
  1 323 9.31623314E-09
  1 324 6.55082395E-09
  1 325 5.72221819E-09
  1 326 4.44630554E-09
  1 327 4.06288489E-10
  1 328 1.63062446E-10
  1 329 1.70448645E-09
  1 330 4.18862368E-09
  1 331 2.26325230E-09
  1 332 3.56751982E-09
  1 333 3.28917895E-09
  1 334 5.53417776E-09
  1 335 7.34666187E-09
  1 336 1.05423505E-08
  1 337 1.20485107E-08
  1 338 1.10851207E-08
  1 339 1.00643291E-08
  1 340 8.77600007E-09
  1 341 4.61685628E-09
  1 342 3.11956310E-09
  1 343 2.35249364E-09
  1 344 3.14149405E-09
  1 345 5.10077441E-09
  1 346 1.01632561E-08
  1 347 1.26822992E-08
  1 348 1.18040832E-08
  1 349 1.20064123E-08
  1 350 1.53422765E-08
  1 351 1.40147826E-08
  1 352 1.50100195E-08
  1 353 1.53207925E-08
  1 354 1.45344440E-08
  1 355 1.54604920E-08
  1 356 2.08010154E-08
  1 357 2.00616830E-08
  1 358 1.63204755E-08
  1 359 1.38803837E-08
  1 360 1.55571286E-08
  1 361 1.25088729E-08
  1 362 1.16055590E-08
  1 363 1.31409119E-08
  1 364 1.55054114E-08
  1 365 1.78617445E-08
  1 366 1.64370170E-08
  1 367 1.41228743E-08
  1 368 1.48328195E-08
  1 369 1.64652336E-08
  1 370 2.12764789E-08
  1 371 2.51396295E-08
  1 372 2.49407821E-08
  1 373 2.63142645E-08
  1 374 2.63218384E-08
  1 375 2.51048555E-08
  1 376 2.02936059E-08
  1 377 1.74554962E-08
  1 378 1.78368317E-08
  1 379 1.65629337E-08
  1 380 1.43037373E-08
  1 381 1.32884296E-08
  1 382 1.15889903E-08
  1 383 1.18306013E-08
  1 384 1.29818526E-08
  1 385 1.43271292E-08
  1 386 1.43571200E-08
  1 387 1.40083450E-08
  1 388 1.38337246E-08
  1 389 1.35437936E-08
  1 390 1.38080129E-08
  1 391 1.71666548E-08
  1 392 1.75435947E-08
  1 393 1.44799042E-08
  1 394 5.96768713E-09
  1 395 5.49609868E-10
  1 396 2.10390092E-09
  1 397 1.21033186E-09
  1 398 3.79455086E-09
  1 399 5.33767026E-09
  1 400 1.22441273E-09
  1 401 1.62667970E-08
  1 402 1.17807651E-08
  1 403 1.23446429E-08
  1 404 1.56999924E-08
  1 405 1.53178011E-08
  1 406 1.29120955E-08
  1 407 1.09228083E-08
  1 408 1.11545757E-08
  1 409 8.77042164E-09
  1 410 1.08265383E-08
  1 411 1.31632433E-08
  1 412 1.12886494E-08
  1 413 7.43308021E-09
  1 414 5.37852959E-09
  1 415 7.07937873E-09
  1 416 1.31760670E-08
  1 417 1.47909496E-08
  1 418 1.57368412E-08
  1 419 1.23269413E-08
  1 420 7.25489209E-09
  1 421 3.09868375E-09
  1 422 4.06120187E-09
  1 423 3.65713239E-09
  1 424 1.54198987E-09
  1 425 1.84104971E-09
  1 426 4.59452076E-09
  1 427 8.82124383E-09
  1 428 6.83169779E-09
  1 429 3.01283505E-10
  1 430 3.87391064E-09
  1 431 6.76162018E-09
  1 432 1.04745106E-08
  1 433 1.47804744E-08
  1 434 1.56854743E-08
  1 435 1.33557554E-08
  1 436 1.13795251E-08
  1 437 9.25653653E-09
  1 438 5.04787449E-09
  1 439 4.92038878E-09
  1 440 2.32634548E-09
  1 441 5.53652263E-10
  1 442 1.33540290E-09
  1 443 5.03463486E-09
  1 444 8.97342136E-09
  1 445 1.00838283E-08
  1 446 1.15761053E-08
  1 447 1.50483857E-08
  1 448 1.41567822E-08
  1 449 1.45386109E-08
  1 450 1.62964990E-08
  1 451 1.87369194E-08
  1 452 2.11398971E-08
  1 453 2.43846944E-08
  1 454 2.49967890E-08
  1 455 2.00196689E-08
  1 456 1.57317192E-08
  1 457 1.88672379E-08
  1 458 1.79589479E-08
  1 459 1.58312341E-08
  1 460 1.60238996E-08
  1 461 2.01477573E-08
  1 462 1.90988746E-08
  1 463 1.71712382E-08
  1 464 1.61759943E-08
  1 465 1.69158869E-08
  1 466 1.54680722E-08
  1 467 1.99866505E-08
  1 468 2.26081373E-08
  1 469 2.51496296E-08
  1 470 2.71418565E-08
  1 471 2.78345967E-08
  1 472 2.47705291E-08
  1 473 2.02865946E-08
  1 474 1.51895338E-08
  1 475 1.69467173E-08
  1 476 1.77221373E-08
  1 477 1.52449231E-08
  1 478 1.37385206E-08
  1 479 1.25214135E-08
  1 480 1.10441668E-08
  1 481 1.08835502E-08
  1 482 1.39971476E-08
  1 483 1.56320486E-08
  1 484 1.40267033E-08
  1 485 1.74459597E-08
  1 486 2.06391242E-08
  1 487 1.98054434E-08
  1 488 1.91010922E-08
  1 489 1.71505719E-08
  1 490 1.28328205E-08
  1 491 7.15822053E-09
  1 492 1.82121268E-09
  1 493 6.99176554E-10
  1 494 1.66523386E-09
  1 495 4.71355092E-10
  1 496 2.59972236E-10
  1 497 3.38850658E-09
  1 498 2.28979260E-09
  1 499 2.71581273E-09
  1 500 1.29406069E-08
  1 501 1.43629033E-08
  1 502 1.69245036E-08
  1 503 1.55686305E-08
  1 504 1.15333097E-08
  1 505 1.17497619E-08
  1 506 9.72944627E-09
  1 507 9.41912760E-09
  1 508 9.90843327E-09
  1 509 8.14972564E-09
  1 510 5.78187999E-09
  1 511 7.50526572E-09
  1 512 1.09892469E-08
  1 513 1.40283732E-08
  1 514 1.28185001E-08
  1 515 1.25516270E-08
  1 516 9.95683160E-09
  1 517 5.86121091E-09
  1 518 2.96054993E-09
  1 519 1.18658330E-09
  1 520 5.71917747E-10
  1 521 1.58158428E-10
  1 522 5.38118946E-09
  1 523 7.27518178E-09
  1 524 9.55059657E-09
  1 525 7.70834170E-09
  1 526 3.51572418E-09
  1 527 3.37327261E-09
  1 528 8.38743908E-09
  1 529 1.51885827E-08
  1 530 2.04170115E-08
  1 531 2.04648534E-08
  1 532 1.42096228E-08
  1 533 1.31967708E-08
  1 534 9.24573961E-09
  1 535 6.27594668E-09
  1 536 5.55181489E-09
  1 537 3.58850116E-09
  1 538 7.99971933E-10
  1 539 1.45610766E-09
  1 540 2.25459483E-09
  1 541 3.15781456E-09
  1 542 5.11131481E-09
  1 543 8.95224469E-09
  1 544 1.10398663E-08
  1 545 1.00730605E-08
  1 546 1.20070341E-08
  1 547 1.55021772E-08
  1 548 1.87092257E-08
  1 549 2.18171816E-08
  1 550 2.39250939E-08
  1 551 2.50611347E-08
  1 552 2.27588121E-08
  1 553 1.95662426E-08
  1 554 2.14488847E-08
  1 555 2.11911781E-08
  1 556 1.82718364E-08
  1 557 2.02519314E-08
  1 558 2.38466894E-08
  1 559 2.32391340E-08
  1 560 1.94021859E-08
  1 561 1.74099049E-08
  1 562 1.42897769E-08
  1 563 1.13104853E-08
  1 564 1.68013720E-08
  1 565 2.05408748E-08
  1 566 2.14778208E-08
  1 567 2.11939090E-08
  1 568 2.04490573E-08
  1 569 1.91033325E-08
  1 570 1.87541367E-08
  1 571 1.75828058E-08
  1 572 2.06673761E-08
  1 573 1.93299948E-08
  1 574 1.75578120E-08
  1 575 1.34448585E-08
  1 576 1.16868779E-08
  1 577 9.93656623E-09
  1 578 1.09931137E-08
  1 579 1.32170050E-08
  1 580 1.55081455E-08
  1 581 1.38761359E-08
  1 582 1.79632597E-08
  1 583 2.31510955E-08
  1 584 2.37118421E-08
  1 585 2.06257357E-08
  1 586 1.87199950E-08
  1 587 1.59591857E-08
  1 588 1.14799544E-08
  1 589 5.64472964E-09
  1 590 1.86082509E-09
  1 591 2.56826950E-09
  1 592 4.98748327E-09
  1 593 7.01122587E-09
  1 594 7.75083790E-09
  1 595 2.70096428E-09
  1 596 8.64193940E-09
  1 597 2.02588246E-08
  1 598 2.86018712E-08
  1 599 3.04748345E-08
  1 600 3.43586450E-08
  1 601 1.34354630E-08
  1 602 1.18985902E-08
  1 603 1.00767777E-08
  1 604 9.11863478E-09
  1 605 9.68091241E-09
  1 606 9.34806213E-09
  1 607 8.93343289E-09
  1 608 9.63379275E-09
  1 609 1.21324815E-08
  1 610 1.25870682E-08
  1 611 9.67080094E-09
  1 612 9.09946467E-09
  1 613 6.22119049E-09
  1 614 3.34949911E-09
  1 615 1.79279415E-09
  1 616 1.65468885E-10
  1 617 1.19832608E-09
  1 618 2.46785973E-09
  1 619 6.21285073E-09
  1 620 6.93765370E-09
  1 621 5.59078681E-09
  1 622 5.02436775E-09
  1 623 2.64196318E-09
  1 624 4.25322536E-09
  1 625 1.21409526E-08
  1 626 1.75021358E-08
  1 627 1.96835421E-08
  1 628 1.85034288E-08
  1 629 1.23685068E-08
  1 630 1.05811763E-08
  1 631 9.87441859E-09
  1 632 9.09467841E-09
  1 633 5.97052218E-09
  1 634 2.30316108E-09
  1 635 6.82146813E-10
  1 636 9.00623745E-10
  1 637 1.88459814E-09
  1 638 5.47988149E-09
  1 639 4.14724277E-09
  1 640 5.71998803E-09
  1 641 6.08652734E-09
  1 642 6.71142690E-09
  1 643 9.03084860E-09
  1 644 1.23363009E-08
  1 645 1.40225216E-08
  1 646 1.80280734E-08
  1 647 2.01634348E-08
  1 648 2.26325968E-08
  1 649 2.18231405E-08
  1 650 2.15889212E-08
  1 651 2.26715166E-08
  1 652 2.20687991E-08
  1 653 2.08920350E-08
  1 654 2.23114498E-08
  1 655 2.46519193E-08
  1 656 2.48055096E-08
  1 657 1.99509846E-08
  1 658 1.50064692E-08
  1 659 1.05346276E-08
  1 660 7.77987497E-09
  1 661 8.28141603E-09
  1 662 1.12282212E-08
  1 663 1.24494166E-08
  1 664 1.41201406E-08
  1 665 1.50724084E-08
  1 666 1.60908046E-08
  1 667 1.42836865E-08
  1 668 1.55734974E-08
  1 669 1.96351299E-08
  1 670 1.89753050E-08
  1 671 1.65041280E-08
  1 672 1.44787031E-08
  1 673 1.04504984E-08
  1 674 8.28404941E-09
  1 675 7.60351955E-09
  1 676 7.98429293E-09
  1 677 1.24225801E-08
  1 678 1.56312362E-08
  1 679 2.10633540E-08
  1 680 2.25320698E-08
  1 681 2.13287687E-08
  1 682 1.72438302E-08
  1 683 1.58994920E-08
  1 684 1.59307345E-08
  1 685 1.37248835E-08
  1 686 7.72600952E-09
  1 687 4.00673503E-09
  1 688 3.82973261E-09
  1 689 8.69226386E-09
  1 690 9.48720690E-09
  1 691 6.48096294E-09
  1 692 1.81194747E-10
  1 693 1.28472624E-08
  1 694 2.42990219E-08
  1 695 2.96412401E-08
  1 696 3.25683716E-08
  1 697 3.69938733E-08
  1 698 3.48749322E-08
  1 699 3.15230929E-08
  1 700 2.91153729E-08
  1 701 6.48620092E-09
  1 702 8.35067296E-09
  1 703 9.71792232E-09
  1 704 1.28052113E-08
  1 705 1.15512786E-08
  1 706 1.19520612E-08
  1 707 1.02243284E-08
  1 708 6.54586038E-09
  1 709 3.95627023E-09
  1 710 3.10804353E-09
  1 711 7.16298924E-10
  1 712 1.25118544E-09
  1 713 9.95255271E-10
  1 714 7.45127106E-10
  1 715 2.58150894E-09
  1 716 5.18345921E-09
  1 717 3.69583287E-09
  1 718 2.77414385E-09
  1 719 3.01220276E-10
  1 720 3.73859468E-09
  1 721 6.97372418E-09
  1 722 1.15838648E-08
  1 723 1.38523829E-08
  1 724 1.48248920E-08
  1 725 1.43869608E-08
  1 726 1.15795626E-08
  1 727 7.94893717E-09
  1 728 6.76948287E-09
  1 729 7.38593230E-09
  1 730 6.34911949E-09
  1 731 3.15170322E-09
  1 732 2.35818695E-09
  1 733 1.67447175E-09
  1 734 3.35160840E-09
  1 735 5.73647048E-09
  1 736 4.02343653E-09
  1 737 5.16902820E-09
  1 738 9.19518494E-09
  1 739 1.07292102E-08
  1 740 1.03679190E-08
  1 741 1.13241892E-08
  1 742 1.05270822E-08
  1 743 1.29484098E-08
  1 744 1.57331667E-08
  1 745 2.03325202E-08
  1 746 2.03568025E-08
  1 747 2.13503632E-08
  1 748 2.05015489E-08
  1 749 1.72460517E-08
  1 750 1.64961522E-08
  1 751 2.22928719E-08
  1 752 2.44237619E-08
  1 753 2.48101709E-08
  1 754 1.86287762E-08
  1 755 1.24516215E-08
  1 756 9.08484462E-09
  1 757 7.95302301E-09
  1 758 6.30291461E-09
  1 759 4.79514405E-09
  1 760 4.72389116E-09
  1 761 6.60760397E-09
  1 762 7.99892848E-09
  1 763 1.04292472E-08
  1 764 9.38002619E-09
  1 765 1.19911636E-08
  1 766 1.59095198E-08
  1 767 1.61364895E-08
  1 768 1.43136403E-08
  1 769 1.21986454E-08
  1 770 7.00070626E-09
  1 771 5.83927799E-09
  1 772 4.92045241E-09
  1 773 6.27297837E-09
  1 774 8.18469094E-09
  1 775 1.21220534E-08
  1 776 1.35707989E-08
  1 777 1.37359938E-08
  1 778 1.40606489E-08
  1 779 1.56046419E-08
  1 780 1.32880268E-08
  1 781 1.19919920E-08
  1 782 1.00642583E-08
  1 783 5.81902245E-09
  1 784 3.79910456E-09
  1 785 1.36288092E-09
  1 786 1.78342661E-09
  1 787 4.88847592E-09
  1 788 5.28810865E-09
  1 789 2.60281059E-10
  1 790 1.04699910E-08
  1 791 2.09840057E-08
  1 792 2.87220273E-08
  1 793 3.14790492E-08
  1 794 3.40614973E-08
  1 795 3.10042647E-08
  1 796 2.83451302E-08
  1 797 2.77642846E-08
  1 798 2.58154640E-08
  1 799 2.37997816E-08
  1 800 2.33855317E-08
  1 801 1.05084626E-08
  1 802 1.16191312E-08
  1 803 1.29405052E-08
  1 804 1.14635424E-08
  1 805 9.63911145E-09
  1 806 5.94724066E-09
  1 807 1.60171665E-09
  1 808 2.65988286E-09
  1 809 1.51174264E-09
  1 810 6.73807457E-11
  1 811 2.91682810E-09
  1 812 3.25903081E-11
  1 813 1.89519584E-09
  1 814 2.96227972E-09
  1 815 1.54195573E-09
  1 816 2.24129064E-09
  1 817 8.21994919E-09
  1 818 9.27699064E-09
  1 819 1.26500161E-08
  1 820 1.36785364E-08
  1 821 1.12165805E-08
  1 822 8.79754872E-09
  1 823 8.44128836E-09
  1 824 7.63477005E-09
  1 825 7.38020205E-09
  1 826 8.21911083E-09
  1 827 9.09791487E-09
  1 828 5.95754533E-09
  1 829 5.18984727E-09
  1 830 4.74799648E-09
  1 831 5.58005210E-09
  1 832 7.21728315E-09
  1 833 8.35714479E-09
  1 834 1.05327973E-08
  1 835 1.35607960E-08
  1 836 1.25223818E-08
  1 837 1.36134461E-08
  1 838 1.40176581E-08
  1 839 1.59004157E-08
  1 840 1.46699353E-08
  1 841 1.32550995E-08
  1 842 1.37611131E-08
  1 843 1.39703284E-08
  1 844 1.52555776E-08
  1 845 1.79375396E-08
  1 846 1.65447572E-08
  1 847 1.58064210E-08
  1 848 1.81213581E-08
  1 849 1.95834182E-08
  1 850 2.02786733E-08
  1 851 1.84132979E-08
  1 852 1.74444708E-08
  1 853 1.49626176E-08
  1 854 1.23446605E-08
  1 855 8.79207399E-09
  1 856 5.51358886E-09
  1 857 1.40715995E-09
  1 858 1.59451671E-09
  1 859 2.49464553E-09
  1 860 5.71625685E-09
  1 861 7.12036872E-09
  1 862 8.86926466E-09
  1 863 1.17353991E-08
  1 864 1.47984112E-08
  1 865 1.51426870E-08
  1 866 1.16799318E-08
  1 867 6.00286536E-09
  1 868 3.45648136E-09
  1 869 3.45493989E-10
  1 870 4.49294495E-10
  1 871 1.21992808E-09
  1 872 3.02909191E-09
  1 873 5.58378477E-09
  1 874 6.74333064E-09
  1 875 6.71013196E-09
  1 876 1.03241461E-08
  1 877 1.05182762E-08
  1 878 1.16892635E-08
  1 879 9.65145073E-09
  1 880 8.45494668E-09
  1 881 6.99551185E-09
  1 882 7.40654716E-09
  1 883 4.14975038E-09
  1 884 2.74821533E-09
  1 885 8.75914471E-09
  1 886 2.46014285E-09
  1 887 7.66039022E-09
  1 888 1.82182646E-08
  1 889 2.36316946E-08
  1 890 2.49929024E-08
  1 891 2.48624154E-08
  1 892 2.52550836E-08
  1 893 2.43324562E-08
  1 894 2.32985393E-08
  1 895 2.24366012E-08
  1 896 2.13525802E-08
  1 897 2.08168144E-08
  1 898 2.30001317E-08
  1 899 2.66202703E-08
  1 900 2.87730816E-08
  1 901 1.48945083E-08
  1 902 9.65374959E-09
  1 903 6.02118447E-09
  1 904 7.42866787E-10
  1 905 2.80711058E-09
  1 906 1.39746669E-09
  1 907 4.87387123E-09
  1 908 5.13936141E-09
  1 909 5.94157804E-10
  1 910 4.33317445E-09
  1 911 3.69056531E-09
  1 912 1.27621534E-09
  1 913 7.50712613E-09
  1 914 9.83757527E-09
  1 915 8.04811089E-09
  1 916 1.09019311E-08
  1 917 1.18099537E-08
  1 918 1.22354061E-08
  1 919 1.00861504E-08
  1 920 1.00310849E-08
  1 921 1.08299354E-08
  1 922 1.13998447E-08
  1 923 1.19997071E-08
  1 924 1.64242432E-08
  1 925 1.55118657E-08
  1 926 1.16170891E-08
  1 927 8.05035126E-09
  1 928 7.57472690E-09
  1 929 6.66060237E-09
  1 930 9.36019739E-09
  1 931 1.45622603E-08
  1 932 1.67659530E-08
  1 933 1.55922198E-08
  1 934 1.78662063E-08
  1 935 1.84756119E-08
  1 936 1.75839331E-08
  1 937 1.46700722E-08
  1 938 1.22549415E-08
  1 939 1.17703036E-08
  1 940 1.26688367E-08
  1 941 1.29607649E-08
  1 942 1.65090617E-08
  1 943 1.42207379E-08
  1 944 1.26413278E-08
  1 945 1.31917998E-08
  1 946 1.72715635E-08
  1 947 1.83603569E-08
  1 948 1.87750691E-08
  1 949 2.00897891E-08
  1 950 1.90450228E-08
  1 951 1.34420439E-08
  1 952 1.46020717E-08
  1 953 1.25456756E-08
  1 954 6.50480335E-09
  1 955 2.77198208E-09
  1 956 2.15556033E-09
  1 957 2.43078977E-09
  1 958 4.56711178E-09
  1 959 1.03922930E-08
  1 960 1.49998428E-08
  1 961 1.66544478E-08
  1 962 1.53031356E-08
  1 963 1.00924968E-08
  1 964 5.16895423E-09
  1 965 3.94207729E-09
  1 966 9.11649014E-10
  1 967 1.46947639E-09
  1 968 3.86324417E-09
  1 969 4.13388944E-09
  1 970 9.52162524E-10
  1 971 1.53407778E-09
  1 972 3.22819605E-09
  1 973 7.90084256E-09
  1 974 1.10629879E-08
  1 975 1.13826423E-08
  1 976 9.76914076E-09
  1 977 9.39755888E-09
  1 978 1.02606330E-08
  1 979 1.02635768E-08
  1 980 8.33867479E-09
  1 981 1.94915315E-09
  1 982 6.17690359E-09
  1 983 2.56974925E-09
  1 984 4.71920629E-09
  1 985 1.25353544E-08
  1 986 1.74014816E-08
  1 987 1.96411983E-08
  1 988 1.82243347E-08
  1 989 1.75533885E-08
  1 990 1.57360283E-08
  1 991 1.61799725E-08
  1 992 1.45245124E-08
  1 993 1.68115797E-08
  1 994 1.74373771E-08
  1 995 2.13276133E-08
  1 996 2.43733616E-08
  1 997 2.72460032E-08
  1 998 3.03805292E-08
  1 999 3.04761791E-08
  1 1000 2.54120930E-08
  1 1001 2.30110559E-09
  1 1002 1.35913940E-09
  1 1003 6.17311995E-09
  1 1004 1.06121585E-08
  1 1005 8.88756137E-09
  1 1006 5.57868089E-09
  1 1007 3.35788693E-10
  1 1008 2.16719283E-09
  1 1009 1.11859387E-09
  1 1010 5.54781340E-09
  1 1011 7.21286809E-09
  1 1012 8.11269695E-09
  1 1013 1.09342839E-08
  1 1014 1.33156693E-08
  1 1015 1.34224258E-08
  1 1016 1.46544634E-08
  1 1017 1.40845785E-08
  1 1018 1.66529903E-08
  1 1019 1.86757810E-08
  1 1020 2.15339353E-08
  1 1021 2.59766960E-08
  1 1022 2.30305411E-08
  1 1023 1.54391441E-08
  1 1024 9.20065066E-09
  1 1025 6.75140393E-09
  1 1026 5.66969511E-09
  1 1027 8.87287424E-09
  1 1028 1.58027348E-08
  1 1029 1.89294118E-08
  1 1030 1.76728318E-08
  1 1031 2.08529677E-08
  1 1032 2.16747475E-08
  1 1033 2.00658165E-08
  1 1034 1.55865301E-08
  1 1035 1.14197947E-08
  1 1036 9.75969823E-09
  1 1037 1.12927533E-08
  1 1038 1.58144394E-08
  1 1039 1.77049149E-08
  1 1040 1.24935200E-08
  1 1041 8.99004047E-09
  1 1042 9.88647336E-09
  1 1043 1.40813442E-08
  1 1044 1.58863700E-08
  1 1045 1.66754722E-08
  1 1046 1.87987199E-08
  1 1047 1.94259653E-08
  1 1048 1.55135355E-08
  1 1049 1.64954115E-08
  1 1050 1.46035950E-08
  1 1051 9.83036001E-09
  1 1052 5.09148146E-09
  1 1053 4.63624001E-09
  1 1054 4.15200023E-09
  1 1055 7.92080402E-09
  1 1056 1.31319991E-08
  1 1057 1.91734208E-08
  1 1058 1.73939781E-08
  1 1059 1.65916832E-08
  1 1060 1.42917404E-08
  1 1061 1.11124166E-08
  1 1062 7.88319554E-09
  1 1063 5.87739584E-09
  1 1064 2.77345491E-09
  1 1065 8.66035389E-10
  1 1066 3.53690579E-09
  1 1067 3.07105940E-09
  1 1068 4.44386677E-09
  1 1069 1.48006269E-09
  1 1070 5.27223117E-09
  1 1071 9.55466422E-09
  1 1072 1.14874304E-08
  1 1073 1.02928104E-08
  1 1074 1.01009998E-08
  1 1075 1.12933244E-08
  1 1076 9.93229962E-09
  1 1077 9.84598767E-09
  1 1078 8.09913409E-09
  1 1079 4.07305909E-09
  1 1080 2.09189777E-09
  1 1081 4.47340028E-09
  1 1082 8.26940431E-09
  1 1083 1.07219603E-08
  1 1084 1.23769330E-08
  1 1085 1.46802975E-08
  1 1086 1.30904265E-08
  1 1087 1.10624447E-08
  1 1088 1.16876310E-08
  1 1089 1.08755286E-08
  1 1090 1.22280181E-08
  1 1091 1.71480945E-08
  1 1092 2.21239808E-08
  1 1093 2.23492057E-08
  1 1094 2.21887753E-08
  1 1095 2.35652952E-08
  1 1096 2.58516264E-08
  1 1097 2.22440710E-08
  1 1098 1.87845501E-08
  1 1099 1.41287230E-08
  1 1100 1.34377023E-08
  1 1101 1.32659810E-08
  1 1102 1.26695703E-08
  1 1103 9.53901143E-09
  1 1104 6.24780054E-09
  1 1105 3.74660184E-09
  1 1106 9.92535297E-10
  1 1107 4.56487620E-09
  1 1108 7.21464161E-09
  1 1109 8.76121804E-09
  1 1110 1.08132467E-08
  1 1111 1.29507132E-08
  1 1112 1.40684545E-08
  1 1113 1.57228028E-08
  1 1114 1.68559163E-08
  1 1115 2.22873867E-08
  1 1116 2.44702986E-08
  1 1117 2.75371635E-08
  1 1118 2.69830976E-08
  1 1119 2.38716213E-08
  1 1120 1.76445375E-08
  1 1121 1.24748792E-08
  1 1122 6.99960760E-09
  1 1123 7.15533687E-09
  1 1124 9.37804678E-09
  1 1125 1.64232865E-08
  1 1126 2.12094521E-08
  1 1127 2.10901959E-08
  1 1128 1.97843891E-08
  1 1129 2.14298836E-08
  1 1130 2.08312930E-08
  1 1131 1.63874296E-08
  1 1132 1.21806356E-08
  1 1133 1.14292178E-08
  1 1134 1.11158834E-08
  1 1135 1.35556110E-08
  1 1136 1.61879000E-08
  1 1137 1.21680194E-08
  1 1138 9.85293471E-09
  1 1139 1.11592919E-08
  1 1140 1.22320750E-08
  1 1141 1.20479463E-08
  1 1142 1.15099646E-08
  1 1143 1.43829406E-08
  1 1144 1.54361645E-08
  1 1145 1.40013763E-08
  1 1146 1.41524282E-08
  1 1147 1.22732379E-08
  1 1148 8.57455598E-09
  1 1149 4.56015395E-09
  1 1150 3.71309038E-09
  1 1151 8.40696620E-09
  1 1152 1.31384539E-08
  1 1153 1.83119153E-08
  1 1154 2.27693593E-08
  1 1155 1.99093376E-08
  1 1156 1.86908007E-08
  1 1157 1.96975438E-08
  1 1158 1.84795592E-08
  1 1159 1.26218883E-08
  1 1160 1.02370821E-08
  1 1161 5.95701124E-09
  1 1162 9.75031846E-10
  1 1163 1.88805740E-09
  1 1164 7.39375982E-10
  1 1165 4.82639370E-09
  1 1166 2.90955652E-09
  1 1167 3.44068540E-09
  1 1168 8.49115156E-09
  1 1169 8.70093950E-09
  1 1170 8.90208791E-09
  1 1171 8.42319013E-09
  1 1172 1.02668366E-08
  1 1173 1.01816877E-08
  1 1174 1.17750746E-08
  1 1175 1.00155500E-08
  1 1176 5.41482082E-09
  1 1177 3.84011080E-09
  1 1178 7.21495895E-09
  1 1179 1.20246307E-08
  1 1180 1.36369073E-08
  1 1181 1.24319963E-08
  1 1182 1.31989589E-08
  1 1183 8.55582938E-09
  1 1184 6.87030999E-09
  1 1185 1.07574296E-08
  1 1186 1.26961660E-08
  1 1187 1.22840721E-08
  1 1188 1.53584559E-08
  1 1189 1.73122002E-08
  1 1190 1.67237879E-08
  1 1191 1.58988640E-08
  1 1192 2.15032855E-08
  1 1193 2.39182025E-08
  1 1194 2.19473300E-08
  1 1195 1.73063934E-08
  1 1196 1.28100401E-08
  1 1197 8.88941172E-09
  1 1198 5.51638792E-09
  1 1199 7.37390471E-09
  1 1200 1.47996695E-08
  1 1201 1.05835767E-08
  1 1202 8.87080039E-09
  1 1203 5.58854833E-09
  1 1204 6.96253148E-09
  1 1205 1.05623327E-08
  1 1206 1.05573916E-08
  1 1207 9.32910876E-09
  1 1208 9.68855756E-09
  1 1209 9.75190859E-09
  1 1210 1.01078994E-08
  1 1211 1.56149656E-08
  1 1212 2.48210786E-08
  1 1213 2.77099184E-08
  1 1214 2.82083779E-08
  1 1215 2.73015770E-08
  1 1216 2.20435352E-08
  1 1217 1.73755621E-08
  1 1218 1.33039021E-08
  1 1219 9.65941814E-09
  1 1220 1.20656810E-08
  1 1221 1.39488772E-08
  1 1222 1.79791052E-08
  1 1223 1.91376944E-08
  1 1224 1.89138980E-08
  1 1225 1.80622876E-08
  1 1226 2.09260126E-08
  1 1227 2.07439685E-08
  1 1228 1.70228277E-08
  1 1229 1.22884232E-08
  1 1230 1.31331213E-08
  1 1231 1.04780812E-08
  1 1232 1.19636879E-08
  1 1233 1.46735811E-08
  1 1234 1.50458936E-08
  1 1235 1.16706008E-08
  1 1236 1.01093834E-08
  1 1237 9.07445695E-09
  1 1238 9.18985516E-09
  1 1239 1.02406828E-08
  1 1240 1.40227427E-08
  1 1241 1.38575683E-08
  1 1242 1.05528095E-08
  1 1243 7.50836431E-09
  1 1244 5.37927522E-09
  1 1245 5.33685362E-09
  1 1246 7.11137196E-09
  1 1247 8.31668190E-09
  1 1248 1.20963579E-08
  1 1249 1.36706665E-08
  1 1250 1.63406961E-08
  1 1251 2.10960030E-08
  1 1252 2.30624150E-08
  1 1253 2.28038990E-08
  1 1254 2.25414760E-08
  1 1255 1.82926750E-08
  1 1256 1.32950802E-08
  1 1257 7.07005057E-09
  1 1258 4.07988404E-09
  1 1259 2.30221429E-09
  1 1260 2.84710308E-09
  1 1261 3.97862177E-09
  1 1262 5.95240390E-10
  1 1263 5.60795715E-10
  1 1264 3.03819583E-09
  1 1265 7.06461174E-09
  1 1266 7.67489038E-09
  1 1267 6.74671986E-09
  1 1268 6.53803727E-09
  1 1269 7.26760015E-09
  1 1270 5.84823354E-09
  1 1271 7.84242683E-09
  1 1272 6.09513868E-09
  1 1273 6.21008286E-09
  1 1274 8.88151407E-09
  1 1275 1.28668374E-08
  1 1276 1.40436129E-08
  1 1277 1.41836897E-08
  1 1278 1.21560848E-08
  1 1279 1.15215093E-08
  1 1280 7.92818956E-09
  1 1281 7.12497697E-09
  1 1282 9.37065369E-09
  1 1283 1.03298620E-08
  1 1284 7.64061036E-09
  1 1285 6.59705134E-09
  1 1286 9.86282943E-09
  1 1287 1.62115188E-08
  1 1288 1.90288803E-08
  1 1289 2.35028402E-08