# File generated by Flopy version 3.5.0 on 02/26/2024 at 10:20:26.
BEGIN options
END options

BEGIN griddata
  icelltype
    CONSTANT  0
  k
    INTERNAL  FACTOR  1.0
    1.05650483E-04  2.22217101E-04  2.00675947E-04  1.58584191E-04  6.63362778E-05  3.93709544E-05  1.21214134E-04  5.59016199E-04  3.09480951E-04  2.65884631E-04  2.13942593E-04  7.74341037E-04       0.00250225       0.00338105       0.00157196  7.33320308E-04  4.94366084E-04  7.80357201E-04  4.56128085E-04  2.10044433E-04
    4.70522607E-05  1.95659636E-04  7.06086435E-04  8.37345409E-04       0.00153435  5.56534515E-04  2.54200016E-04  1.34162611E-04  4.69021632E-04  6.21687160E-04  8.88347818E-04  8.87268113E-04  5.28647613E-04  5.24391130E-04       0.00167589       0.00275930  7.98939823E-04  4.40322629E-04  9.16207769E-04  2.89677735E-04
    1.03384616E-04  1.08118512E-04  1.08719244E-04  2.01009718E-04  2.02277414E-04  1.84485278E-04  1.93012750E-04  9.01832002E-04       0.01119959       0.00518160       0.00359875       0.00309343       0.00374707       0.00291902  2.22485658E-04  9.53509573E-05  2.43207434E-04  7.81120925E-04  3.27084569E-04  8.98216926E-05
    7.99820137E-05  3.21381256E-05  5.95012656E-05  1.59937917E-04  9.69619374E-05  8.03691939E-05  2.05796217E-04  2.15859911E-04  1.43214358E-04  1.39666735E-04  7.01394865E-04  4.71251936E-04  3.20031646E-04  1.93537764E-04  1.70982626E-04  2.11716771E-04  9.87991095E-05  5.14085323E-05  7.37243652E-05  1.83367977E-04
    8.77313541E-05  4.11893668E-05  1.30783702E-04  1.82455526E-04  1.45906691E-04  8.05036764E-05  3.02426318E-05  1.82137330E-05  3.67577035E-05  3.68695208E-05  4.71753522E-05  1.70041006E-04       0.00100570       0.00357564       0.00127752  6.08918667E-04  4.52161649E-04  7.95306670E-04       0.00114053       0.00147214
    8.03315265E-05  2.67086137E-04  1.80568248E-04  1.72176202E-04  9.20396009E-05  3.95246863E-05  4.82674261E-05  2.34095274E-04  3.84732797E-04  3.14420918E-04  1.63242486E-04  3.05496261E-04       0.00107803       0.00212687       0.00149862       0.00103098  6.03343362E-04  8.33996665E-04  7.50984942E-04  6.20320158E-04
    5.98761212E-05  8.16756520E-05  5.24388717E-04  8.92160849E-04  6.60123380E-04  5.46652397E-04  2.79012993E-04  1.35210838E-04  2.88076989E-04  4.97836959E-04  6.67062061E-04  7.95763992E-04       0.00106405  6.83136925E-04       0.00173658       0.00533556       0.00214527  9.61306624E-04  7.71490443E-04  5.81382298E-04
    1.29660141E-04  1.15614106E-04  9.60978559E-05  1.30768623E-04  1.67881855E-04  2.04811476E-04  1.95038551E-04  3.57654911E-04       0.00298308       0.00400068       0.00278690       0.00340365       0.00540810       0.00173692  6.41045316E-04  1.37002755E-04  1.09284352E-04  1.82870692E-04  1.53870233E-04  1.95695660E-04
    9.66993725E-05  4.21013930E-05  3.89032160E-05  2.10600672E-04  1.81917730E-04  9.34361875E-05  1.91866332E-04  2.34715880E-04  1.71067012E-04  1.27212035E-04  7.46155264E-04  4.79086417E-04  3.66904279E-04  3.09096850E-04  3.69374432E-04  1.55138212E-04  1.16024491E-04  6.66209177E-05  7.37742013E-05  1.84483596E-04
    2.23841358E-04  4.23935229E-05  6.55598779E-05  1.28552776E-04  8.42596034E-05  1.14990187E-04  4.74620795E-05  1.86489855E-05  2.17099125E-05  1.83352020E-05  5.54542525E-05  1.13622787E-04       0.00110878       0.00191731       0.00245489  5.98585275E-04  2.63583555E-04  6.20037871E-04  6.33118730E-04  6.31077396E-04
    1.03768927E-04  1.26941396E-04  2.35965410E-04  1.59332111E-04  1.33252590E-04  9.11865039E-05  1.68200552E-05  1.68377058E-04  4.08120912E-04  3.36807530E-04  2.54293074E-04  1.36024182E-04  5.16043893E-04  7.90152284E-04       0.00144209  8.10919967E-04  5.13625743E-04  8.05747567E-04       0.00127266       0.00150324
    1.69703930E-04  5.24714255E-05  5.71081208E-04       0.00110475  4.15373525E-04  5.53356536E-04  2.78318267E-04  2.21687741E-04  1.24831531E-04  4.23156260E-04  6.13410817E-04  6.03552483E-04       0.00140087       0.00115029       0.00196363       0.00524263       0.01002103       0.00188991       0.00142881  9.78407243E-04
    3.73968359E-04  2.11190736E-04  8.45000519E-05  8.21612448E-05  1.27577597E-04  2.25549108E-04  1.48462458E-04  2.45047264E-04  7.82456280E-04       0.00210925       0.00231411       0.00362963       0.00405503       0.00210416  6.67174472E-04  3.14887207E-04  9.92741706E-05  5.96743307E-05  1.14292914E-04  1.68027824E-04
    1.83542456E-04  7.21854939E-05  3.31010065E-05  1.47084547E-04  2.18175267E-04  1.61769678E-04  1.04393968E-04  3.17119381E-04  1.95342660E-04  1.33451037E-04  4.02869500E-04  7.00358780E-04  5.02622099E-04  4.66594072E-04  4.40169631E-04  1.55615640E-04  1.80394943E-04  9.50053681E-05  1.21966939E-04  1.14102925E-04
    2.87707557E-04  8.86437922E-05  3.48273817E-05  6.61012716E-05  6.00719845E-05  6.47626870E-05  1.16151863E-04  2.27639608E-05  1.21069732E-05  1.23071257E-05  3.32806608E-05  1.04128537E-04  3.74209299E-04       0.00162415       0.00206154  8.81987293E-04  3.40942602E-04  2.17838036E-04  7.85923833E-04  1.88389588E-04
    1.86432292E-04  1.07095628E-04  1.49036758E-04  1.91262450E-04  1.83726680E-04  1.28097135E-04  2.13766498E-05  6.23232386E-05  5.10521016E-04  4.14289065E-04  3.46858002E-04  3.32011049E-04  1.62968775E-04  4.46521030E-04  5.58226605E-04  6.28799387E-04  4.51752601E-04  4.05836083E-04       0.00239612       0.00169233
    6.95117849E-04  1.05745299E-04  3.96054454E-04       0.00119693  4.99761223E-04  4.87771353E-04  4.50813826E-04  2.65862377E-04  1.69369175E-04  3.58452351E-04  7.30238820E-04  4.12855236E-04  7.91065933E-04       0.00210785       0.00183794       0.00400049       0.02247497       0.00479021       0.00288410       0.00226131
         0.00160651  4.83879925E-04  1.33327591E-04  3.41788693E-05  1.31241242E-04  1.54190696E-04  1.51303524E-04  2.23049640E-04  3.17362663E-04  9.96105626E-04  8.89542405E-04       0.00371242       0.00313238       0.00242239  5.85730233E-04  3.13619821E-04  1.65470109E-04  5.59146206E-05  8.62923238E-05  1.36147979E-04
    1.59991746E-04  2.31411561E-04  3.96773768E-05  7.27576486E-05  3.11750605E-04  1.57913299E-04  9.53431385E-05  1.89128240E-04  2.41970344E-04  1.13951827E-04  1.18494142E-04  9.78331875E-04  6.99815190E-04  7.42919143E-04  3.21012665E-04  2.91528044E-04  2.31975059E-04  1.39891028E-04  1.77092272E-04  1.10025380E-04
    1.73213168E-04  1.60160932E-04  3.23934663E-05  3.32488712E-05  5.51222134E-05  3.19826224E-05  1.00038438E-04  5.02092284E-05  7.73169272E-06  8.11565804E-06  2.32001095E-05  5.52075211E-05  1.93150184E-04  8.50796761E-04       0.00167739       0.00115524  2.88505474E-04  1.58763750E-04  3.85276888E-04  1.78404986E-04
    4.38576218E-04  1.58736177E-04  9.70590613E-05  1.66101273E-04  3.27909224E-04  1.25301920E-04  3.78029727E-05  4.06531509E-05  2.56810670E-04  5.46873268E-04  5.12222392E-04  7.59052083E-04  1.87989960E-04  1.52523274E-04  2.68261970E-04  6.64821775E-04  3.23265442E-04  3.06641889E-04       0.00119458       0.00225016
         0.00119238  3.36885323E-04  3.03653504E-04  7.50815578E-04  9.20648213E-04  4.50489970E-04  7.54090146E-04  4.13721868E-04  3.81196119E-04  4.21798385E-04  7.59807674E-04  2.58209294E-04  4.83885510E-04       0.00199154       0.00255469       0.00311554       0.01423498       0.01179869       0.00413966       0.00452868
         0.00514645  9.87407992E-04  3.01173830E-04  3.66915064E-05  6.02589595E-05  1.36499647E-04  1.79870347E-04  2.35193796E-04  2.04893406E-04  2.81985052E-04  5.89081290E-04       0.00130342       0.00483436       0.00183184  5.03166558E-04  2.76087534E-04  1.34349242E-04  1.21481423E-04  7.00507001E-05  8.65206766E-05
    1.58708353E-04  3.43503688E-04  1.49192895E-04  5.37836495E-05  2.78846698E-04  2.35831411E-04  4.57757817E-05  1.31850571E-04  1.53164404E-04  1.03365267E-04  4.67386579E-05  3.94085827E-04       0.00141621  6.70776922E-04  4.91394629E-04  4.38316202E-04  1.92539732E-04  1.85392306E-04  1.75203252E-04  2.54311628E-04
    1.02149846E-04  1.48283266E-04  5.93812236E-05  2.16155639E-05  4.05664797E-05  2.24432537E-05  4.37581749E-05  8.10869657E-05  9.68278822E-06  6.03265296E-06  1.38926907E-05  4.17513954E-05  1.17468895E-04  5.39650647E-04       0.00121589  7.54337265E-04  2.90496796E-04  1.40394898E-04  2.59842241E-04  1.47492316E-04
    8.63606776E-04  3.91101871E-04  8.08540171E-05  1.88471572E-04  4.34834199E-04  1.88881810E-04  6.13800853E-05  3.76856319E-05  1.08440590E-04  3.08084316E-04  6.46366366E-04  9.95736308E-04  3.05029976E-04  1.31988030E-04  1.67833343E-04  6.47281168E-04  2.82379286E-04  2.22540451E-04  5.69012671E-04       0.00142622
         0.00109430  6.82118392E-04  3.19680086E-04  6.30892378E-04  7.70095309E-04  6.21184688E-04  7.92940489E-04  7.03726355E-04  6.76859433E-04  5.98898526E-04  6.56121039E-04  2.77936979E-04  2.98686661E-04       0.00150257       0.00329084       0.00328337       0.00597558       0.01256986       0.00538313       0.00446815
         0.00761013       0.00187514  5.76665581E-04  7.59188329E-05  2.55673110E-05  7.11215540E-05  3.31527799E-04  2.04929138E-04  1.54400623E-04  1.85427281E-04  4.56887387E-04  6.05919594E-04       0.00243686       0.00209699  4.98715300E-04  1.42746844E-04  1.31915885E-04  1.26860261E-04  9.70829857E-05  7.64482369E-05
    1.28245868E-04  4.55429689E-04  3.28252970E-04  1.23534857E-04  1.92348012E-04  2.23581248E-04  4.73497896E-05  4.49225540E-05  1.93678853E-04  1.00234497E-04  2.42145545E-05  1.31412587E-04  7.27623054E-04       0.00110338  6.21146994E-04  4.45167497E-04  1.68786917E-04  1.43997173E-04  2.76041946E-04  3.90893929E-04
    1.70247950E-04  9.99770253E-05  9.72522031E-05  2.49091094E-05  1.97016147E-05  2.51099672E-05  2.68748031E-05  5.38843828E-05  2.30047427E-05  5.39054342E-06  8.86610462E-06  3.25061066E-05  1.05689383E-04  4.29447207E-04  8.51299497E-04  4.65994148E-04  3.41558861E-04  2.51646995E-04  1.51649698E-04  1.42042881E-04
    8.42569155E-04  7.42508205E-04  1.83400313E-04  1.30486983E-04  6.59448485E-04  2.64764972E-04  1.06882219E-04  3.88705849E-05  5.97452953E-05  1.64204380E-04  2.94428992E-04       0.00100676  4.80493444E-04  2.04398908E-04  1.81348375E-04  2.08996109E-04  3.12741515E-04  2.33878556E-04  2.81998672E-04       0.00105621
    4.70897301E-04       0.00105136  3.96899050E-04  4.95998813E-04  6.24925813E-04  4.72451876E-04  7.01189977E-04  6.78655508E-04  8.16248822E-04  8.72970132E-04  5.68256512E-04  5.10089393E-04  1.83296153E-04  8.06309605E-04       0.00288415       0.00427870       0.00518211       0.00644094       0.00478654       0.00398785
         0.00486318       0.00300487  5.66558095E-04  1.27153466E-04  1.81289710E-05  3.26631477E-05  3.01576028E-04  2.30742876E-04  1.73141160E-04  2.15380763E-04  7.16132060E-04  2.93919598E-04  6.95732051E-04       0.00242881  5.27793683E-04  1.06835182E-04  8.99357137E-05  1.74849407E-04  9.69185275E-05  1.27263666E-04
    1.31598122E-04  2.37948518E-04  4.70739653E-04  2.90279687E-04  2.02527471E-04  1.69521229E-04  4.38313512E-05  4.53838438E-05  1.75000515E-04  1.48005502E-04  3.01482383E-05  3.34949375E-05  4.10795252E-04  6.95969276E-04  8.88119839E-04  3.76034582E-04  1.33753344E-04  1.51119726E-04  1.99324202E-04  5.20925135E-04
    3.05791675E-04  1.36477930E-04  1.33179304E-04  3.41911099E-05  1.71191786E-05  2.57117260E-05  2.53889887E-05  2.95648198E-05  3.47038043E-05  6.92003146E-06  8.16192044E-06  1.94025509E-05  1.32588762E-04  4.10169957E-04  8.61290009E-04  4.79416108E-04  4.07284298E-04  3.51425326E-04  1.40150727E-04  1.14774506E-04
    7.00071196E-04  5.66028293E-04  4.35888261E-04  1.31552325E-04  3.25649896E-04  6.15321253E-04  1.08857434E-04  5.90106618E-05  6.60430946E-05  7.69820978E-05  1.65463426E-04  3.56904559E-04       0.00105278  2.83508228E-04  1.34202854E-04  9.16961799E-05  1.80501782E-04  3.44137929E-04  2.17786616E-04  6.41847558E-04
    5.00162983E-04  4.97569836E-04  6.33086137E-04  3.88803994E-04  4.58905393E-04  6.06298557E-04  2.14690658E-04  7.30725780E-04  5.47097442E-04  7.42894893E-04  8.56066774E-04  4.98411464E-04  2.18836601E-04  2.37328336E-04       0.00211494       0.00683710       0.00734551       0.00368938       0.00259743       0.00377519
         0.00282090       0.00206029  5.36794900E-04  1.15136441E-04  2.37798506E-05  2.68395605E-05  1.00678403E-04  3.25141715E-04  1.78591666E-04  2.95119026E-04  9.33104677E-04  3.42186552E-04  2.51503639E-04       0.00196524  8.27760271E-04  1.01696953E-04  1.02603433E-04  1.65016681E-04  1.59670425E-04  1.54688374E-04
    1.45706056E-04  1.09867362E-04  2.65084470E-04  7.61517113E-04  2.36109085E-04  1.23233714E-04  4.00410435E-05  6.64058777E-05  1.39474452E-04  1.62324414E-04  9.48704556E-05  3.20195333E-05  1.34180091E-04  5.48048545E-04  5.29051642E-04  5.89498037E-04  1.20723755E-04  7.67197241E-05  1.64538348E-04  2.28147149E-04
    4.93137489E-04  3.07831270E-04  2.02119346E-04  6.72512929E-05  1.95265403E-05  3.08100824E-05  1.95546658E-05  2.14269428E-05  3.02534127E-05  1.09358882E-05  1.05376035E-05  1.36809891E-05  1.18177132E-04  5.48269639E-04       0.00127801  6.75656815E-04  3.81141283E-04  2.23138817E-04  2.38663824E-04  1.27653442E-04
    4.30226865E-04  2.93825211E-04  5.10524331E-04  1.43244018E-04  1.58659031E-04  6.59581910E-04  1.94642255E-04  8.42598182E-05  6.83777175E-05  8.81670098E-05  6.69952507E-05  1.57817530E-04  8.08839849E-04  4.85194029E-04  1.18791047E-04  5.83527718E-05  1.40550507E-04  1.82934645E-04  2.77392703E-04  4.83774055E-04
    6.57956021E-04  3.14272306E-04  4.48700681E-04  4.56363903E-04  5.37545209E-04  6.46370660E-04  1.88796442E-04  2.74300137E-04  3.83315614E-04  4.47651818E-04  6.79016669E-04  7.66419321E-04  1.65763913E-04  1.65559048E-04       0.00109750       0.00702407       0.01155280       0.00260398       0.00192069       0.00218650
         0.00185877       0.00132098  5.35369114E-04  1.00069221E-04  4.12315915E-05  2.98492013E-05  6.18013496E-05  1.61781338E-04  1.76471899E-04  2.68855980E-04  7.52664471E-04  8.66137599E-04  2.28976699E-04       0.00107413       0.00132940  1.52950434E-04  1.43948385E-04  1.74458362E-04  2.77204961E-04  1.97639266E-04
    1.18631920E-04  7.51678677E-05  1.33995329E-04  6.69570629E-04  4.45039413E-04  6.32183159E-05  4.29660918E-05  6.84634044E-05  8.89792233E-05  2.09079830E-04  2.22696220E-04  1.22023404E-04  5.00094174E-05  3.47342478E-04  4.17440469E-04  5.89135849E-04  1.84051441E-04  3.84291416E-05  7.99243171E-05  1.61012614E-04
    2.07053634E-04  7.84711637E-04  2.69353149E-04  1.00340490E-04  3.83090027E-05  2.25529585E-05  2.53533847E-05  1.23972133E-05  3.43313329E-05  2.13660739E-05  9.51138979E-06  1.71547635E-05  6.53570115E-05  7.06641029E-04       0.00160393  9.87616909E-04  3.32343743E-04  1.17333310E-04  3.66637462E-04  2.12163979E-04
    1.73766855E-04  3.17562703E-04  2.62071662E-04  1.38270772E-04  1.11295637E-04  4.35204040E-04  4.34414627E-04  8.59905444E-05  8.45031332E-05  1.03356793E-04  6.15358685E-05  5.02099296E-05  3.55374314E-04  8.61516571E-04  1.51823580E-04  8.83592886E-05  6.63005621E-05  1.21905883E-04  1.96527170E-04  6.03221263E-04
         0.00106088  3.13569351E-04  2.79072369E-04  4.27132435E-04  6.93612132E-04  8.21556801E-04  3.22412045E-04  1.50147744E-04  1.79850365E-04  3.21223429E-04  4.91268247E-04  7.40767401E-04  2.91142119E-04  1.16387146E-04  5.43104801E-04       0.00363395       0.00755543       0.00557877       0.00129613       0.00110636
         0.00137021       0.00128663  6.54809381E-04  8.69603902E-05  6.37014678E-05  4.64754229E-05  6.65053201E-05  7.00470932E-05  1.37691476E-04  1.89333433E-04  5.77236123E-04       0.00112618  6.29804030E-04  3.83019432E-04       0.00153402  3.49504283E-04  1.77482754E-04  2.26461672E-04  4.03089479E-04  3.12513922E-04
    1.32672373E-04  5.19355641E-05  6.59379465E-05  3.26941582E-04  4.17401342E-04  7.18066537E-05  2.68180499E-05  5.49699488E-05  9.82281850E-05  1.47087769E-04  3.44120152E-04  2.31170438E-04  6.77242535E-05  1.55498554E-04  3.51369381E-04  5.33362779E-04  2.43434041E-04  5.24457527E-05  3.71588504E-05  1.01133918E-04
    1.30564551E-04  3.17244474E-04  3.39883269E-04  1.22777042E-04  4.28425563E-05  3.86710509E-05  1.70403853E-05  1.78963099E-05  2.82064751E-05  3.86157928E-05  1.03672436E-05  1.43457108E-05  8.04229986E-05  3.18477952E-04       0.00157285       0.00148547  3.37266058E-04  1.01323663E-04  1.83164347E-04  3.75763659E-04
    1.07922506E-04  4.12037492E-04  2.08166372E-04  8.05601422E-05  8.87231796E-05  3.27727942E-04  4.72594240E-04  1.20275691E-04  1.28755984E-04  1.26842500E-04  7.17270402E-05  2.96017084E-05  1.15923318E-04  8.71624382E-04  2.54667801E-04  1.16401027E-04  5.92385206E-05  7.39297523E-05  1.82379852E-04  6.34542542E-04
         0.00187430  6.43754861E-04  1.50461233E-04  4.31556030E-04  4.03619178E-04       0.00113371  7.03491106E-04  1.90523247E-04  1.30396049E-04  2.00889654E-04  5.24689900E-04  7.37973622E-04  4.33680273E-04  1.39229970E-04  1.51631438E-04       0.00164544       0.00407553       0.00798388       0.00179024  3.87505124E-04
         0.00140514       0.00141977  7.21452627E-04  1.23907013E-04  6.25254254E-05  1.04055280E-04  6.74054360E-05  6.73251119E-05  1.22926286E-04  1.31478126E-04  3.40683028E-04  7.72892988E-04       0.00106676  2.61913159E-04       0.00113984  8.47132769E-04  1.92502409E-04  1.87216993E-04  4.71557072E-04  5.11300921E-04
    2.04898571E-04  3.18377116E-05  4.02415767E-05  1.20094174E-04  3.37294222E-04  7.82257940E-05  2.32647792E-05  3.51411728E-05  1.15742063E-04  1.15955319E-04  1.17322678E-04  3.03116061E-04  1.27296387E-04  8.82064409E-05  3.01207806E-04  2.80526477E-04  4.25085984E-04  7.89471557E-05  2.69715275E-05  6.21826157E-05
    8.69638864E-05  1.14030544E-04  1.78790456E-04  1.52229257E-04  5.04912295E-05  3.97220113E-05  2.82788852E-05  1.62622733E-05  2.22882062E-05  4.57919775E-05  1.21454622E-05  2.42141207E-05  5.01804424E-05  2.24823168E-04  9.25130373E-04       0.00178076  6.12839767E-04  6.90505493E-05  7.81112723E-05  2.76953297E-04
    7.89434089E-05  4.74284391E-04  2.80093450E-04  6.13370103E-05  5.85602072E-05  1.96648181E-04  5.07458629E-04  1.95183666E-04  2.72190091E-04  1.48414853E-04  6.66235816E-05  4.80352142E-05  4.81730406E-05  3.10454609E-04  3.57594293E-04  1.27274366E-04  1.02370739E-04  6.56220937E-05  1.33818153E-04  7.37262704E-04
         0.00173840       0.00132077  2.51598845E-04  1.96446683E-04  3.49784207E-04  6.27954423E-04       0.00160580  4.47479032E-04  1.10491688E-04  1.96791470E-04  4.28306600E-04       0.00118612  3.86280009E-04  1.81351902E-04  1.04786968E-04  4.82553416E-04       0.00320579       0.00515606       0.00150678  4.28649195E-04
    5.32116940E-04       0.00203336  7.74662657E-04  2.20081888E-04  1.12165073E-04  1.11481044E-04  1.04995855E-04  7.22648308E-05  1.55824702E-04  1.24720188E-04  1.34776352E-04  4.97727591E-04  5.68558417E-04  4.26308121E-04  8.98319786E-04       0.00119314  1.93907905E-04  9.60961278E-05  3.24750040E-04  5.71390155E-04
    2.17038946E-04  3.59021583E-05  3.06637700E-05  5.17325462E-05  2.18018131E-04  8.42028174E-05  2.66282081E-05  2.34445326E-05  1.12981359E-04  9.41676167E-05  5.46741862E-05  1.46010103E-04  2.26647227E-04  7.65866617E-05  1.43655048E-04  2.28907122E-04  2.90652960E-04  1.46988752E-04  1.77852958E-05  3.97884151E-05
    7.48683861E-05  6.92668544E-05  1.18022926E-04  1.02128234E-04  6.73996849E-05  4.42652701E-05  4.44065417E-05  2.49012107E-05  1.26605403E-05  3.45911224E-05  3.10852054E-05  2.15285541E-05  4.44419375E-05  1.32384556E-04  8.17690984E-04       0.00145959  7.07326397E-04  1.32769127E-04  3.34435164E-05  1.47137589E-04
    4.48721441E-05  3.20287917E-04  6.48602351E-04  7.33812404E-05  4.44980591E-05  9.14041917E-05  5.35870195E-04  3.97824959E-04  3.95965883E-04  1.92947905E-04  7.35562175E-05  7.53378395E-05  5.03781208E-05  6.37333901E-05  3.26100811E-04  1.27475178E-04  2.10307697E-04  6.69125905E-05  8.97261604E-05  5.05313668E-04
         0.00122773       0.00160424  6.41961070E-04  1.64403879E-04  1.81534306E-04  4.95183239E-04       0.00125746  7.27094826E-04  1.91980953E-04  1.36203518E-04  6.04681942E-04  9.16740862E-04  4.57688596E-04  2.92230845E-04  1.08660472E-04  2.34679483E-04       0.00140489       0.00315928  9.61094068E-04  4.38064329E-04
    3.78691525E-04       0.00108552       0.00122974  5.46888002E-04  1.69511654E-04  1.87184472E-04  8.18292020E-05  1.09827406E-04  1.68865224E-04  1.48484505E-04  1.30368949E-04  1.54872722E-04  3.08101987E-04  4.64012972E-04  7.45314286E-04       0.00113831  1.97282810E-04  6.77439789E-05  1.27792385E-04  2.59502001E-04
    1.94016583E-04  5.82691002E-05  3.09823206E-05  2.44039521E-05  8.36498718E-05  1.29638564E-04  2.34114335E-05  2.73804068E-05  1.01804797E-04  1.29937392E-04  6.74798918E-05  5.96612338E-05  1.73953163E-04  8.98771523E-05  5.39456938E-05  2.06616966E-04  1.91095817E-04  1.18375716E-04  1.88707911E-05  2.07789795E-05
    7.26454382E-05  7.70856816E-05  8.00601610E-05  8.54832759E-05  5.73166282E-05  7.73736901E-05  7.56791609E-05  6.11404493E-05  1.78753797E-05  1.83243219E-05  6.51790464E-05  2.06493515E-05  2.85095150E-05  1.44225249E-04  4.68792244E-04       0.00125104  6.60540864E-04  3.50350409E-04  7.17597387E-05  4.03409576E-05
    5.49541345E-05  1.64629566E-04  8.11985959E-04  2.20072501E-04  2.80915738E-05  6.17863804E-05  2.61371695E-04  7.13123684E-04  5.01965855E-04  2.50412383E-04  1.41248727E-04  6.46130072E-05  8.35523171E-05  2.74223490E-05  1.25008061E-04  1.37222825E-04  1.93102881E-04  9.79542557E-05  6.08444904E-05  2.45950345E-04
         0.00109898  8.94952641E-04       0.00107191  1.89587987E-04  1.25065340E-04  2.65603195E-04  5.60902650E-04  6.14397203E-04  2.89846409E-04  2.34606842E-04  3.88130926E-04  8.66517142E-04  6.09619098E-04  3.47111948E-04  1.46930143E-04  9.07728867E-05  8.31398141E-04       0.00176186  7.86959441E-04  4.05153113E-04
    3.50239544E-04  7.08007438E-04       0.00110891       0.00138168  3.94899520E-04  1.70659869E-04  1.40027568E-04  9.63552874E-05  1.67792962E-04  2.66312449E-04  1.69420572E-04  1.08167130E-04  8.29068996E-05  2.99097086E-04  5.12283657E-04  7.88775606E-04  4.07590108E-04  6.14412576E-05  5.05080529E-05  7.33354652E-05
    1.28911328E-04  9.63325745E-05  2.75788324E-05  1.53955946E-05  3.32738169E-05  1.08952601E-04  3.50317989E-05  3.10852863E-05  1.54043831E-04  2.68252470E-04  1.21128944E-04  6.74003144E-05  8.42203845E-05  8.71501265E-05  3.89184383E-05  1.45271491E-04  1.65205074E-04  7.20756595E-05  1.89978392E-05  1.76357667E-05
    4.04496577E-05  7.77825284E-05  7.93452323E-05  9.13263639E-05  6.40096174E-05  7.93275708E-05  2.18547339E-04  2.24193364E-04  4.27318768E-05  2.26603749E-05  4.58385054E-05  4.72107437E-05  2.47005427E-05  1.26322142E-04  3.47292499E-04  6.40066473E-04  7.12228593E-04  8.06335316E-04  2.06338599E-04  4.27152906E-05
    5.89451665E-05  1.38850642E-04  5.64347912E-04  3.81299710E-04  5.84854017E-05  2.06845977E-05  1.46074493E-04  6.24552309E-04  5.68885453E-04  5.19123063E-04  1.60401174E-04  7.84613524E-05  7.49574969E-05  2.77561817E-05  4.34479916E-05  8.83591163E-05  1.15855357E-04  1.50788948E-04  6.64173756E-05  1.51168840E-04
    6.88284878E-04  5.54159631E-04  4.75799351E-04  2.69029223E-04  1.11273012E-04  9.75635515E-05  2.62428254E-04  3.16799604E-04  3.55521943E-04  3.51749952E-04  3.26868409E-04  6.40766941E-04  9.71644665E-04  2.52059431E-04  1.24245811E-04  8.38840768E-05  3.12515970E-04       0.00164584  6.11518961E-04  3.95086403E-04
    3.92350375E-04  5.67768218E-04       0.00120181       0.00210777       0.00108116  2.16147808E-04  2.18365592E-04  1.36075828E-04  9.11529526E-05  4.01557285E-04  3.67679302E-04  9.70841033E-05  4.40939183E-05  7.69915931E-05  5.35501646E-04  5.33545470E-04  5.29012307E-04  1.25852407E-04  1.95072455E-05  2.76983758E-05
    6.30804618E-05  9.67287885E-05  3.10987015E-05  1.65402981E-05  2.05957505E-05  5.07750277E-05  6.13205817E-05  3.46419548E-05  2.39081895E-04  4.57223571E-04  2.72485717E-04  1.57812378E-04  1.15371334E-04  6.49258344E-05  5.67683313E-05  8.73851124E-05  1.47692181E-04  5.71693020E-05  2.53086625E-05  1.39226930E-05
    2.17335522E-05  5.62783687E-05  8.86587372E-05  2.00340912E-04  4.54660548E-05  9.80404597E-05  3.64519252E-04  7.34859297E-04  1.56225265E-04  4.05057962E-05  6.40654723E-05  9.79059543E-05  5.43806084E-05  1.12784093E-04  2.38056534E-04  3.80467751E-04  4.64077414E-04       0.00102251  5.20572080E-04  8.32139081E-05
    1.00803382E-04  1.04753366E-04  3.30710955E-04  8.19243176E-04  7.42677932E-05  2.79233864E-05  5.73802176E-05  4.23700863E-04  6.08407583E-04  4.52395294E-04  2.88443979E-04  5.95122525E-05  6.18843206E-05  3.38523952E-05  1.93400360E-05  6.46742443E-05  5.81181317E-05  2.12056323E-04  1.20329554E-04  7.61271835E-05
    4.29701682E-04  3.24396139E-04  1.96635214E-04  2.45887237E-04  1.05509654E-04  7.06963635E-05  9.10037883E-05  1.95194102E-04  2.40379425E-04  3.32181022E-04  3.63908573E-04  5.47234208E-04  8.57433455E-04  2.23648296E-04  9.73365785E-05  1.11694583E-04  1.60418339E-04  7.10338065E-04  7.69677364E-04  3.36454299E-04
    4.31010295E-04  8.55400513E-04       0.00143985       0.00423041       0.00145445  6.89315289E-04  2.51646924E-04  1.64052975E-04  8.32960146E-05  2.62898621E-04  6.93171022E-04  1.53178789E-04  3.63727740E-05  5.63470531E-05  3.05812603E-04  4.74464235E-04  3.38607278E-04  1.91196795E-04  3.01392733E-05  6.95679115E-06
    4.61028194E-05  5.81604119E-05  4.51725806E-05  3.03143332E-05  1.70280879E-05  3.19857951E-05  5.41472068E-05  4.79993301E-05  2.23119888E-04  5.99856592E-04  5.51201326E-04  4.58342886E-04  3.75851664E-04  7.89285763E-05  6.88004216E-05  6.11166913E-05  1.39610064E-04  7.02361204E-05  4.40799794E-05  1.24123152E-05
    1.64062774E-05  3.69587255E-05  1.14876733E-04  2.12097361E-04  6.19378462E-05  8.26700582E-05  4.12862634E-04       0.00114747  4.95285450E-04  1.70013238E-04  9.09284469E-05  2.45313867E-04  1.27105778E-04  1.44370692E-04  2.60381148E-04  1.85685886E-04  3.86856984E-04  5.31072683E-04  7.93495084E-04  2.89127905E-04
    8.68992461E-05  1.15745260E-04  2.93244135E-04       0.00111275  1.71529812E-04  4.41615324E-05  7.39823576E-05  1.76248138E-04  4.34704762E-04  3.88544760E-04  2.48973251E-04  1.13573215E-04  2.98202069E-05  4.29949347E-05  1.55487731E-05  3.05483222E-05  9.58534810E-05  1.26049572E-04  2.06031298E-04  4.96633326E-05
    2.43382224E-04  3.01490558E-04  1.09625293E-04  1.46773946E-04  1.37464948E-04  7.62866762E-05  4.45428789E-05  9.13276534E-05  2.10932649E-04  2.46744605E-04  3.29459309E-04  5.98928244E-04  4.36521117E-04  2.70285344E-04  9.09573344E-05  1.33819709E-04  8.95173487E-05  2.91342592E-04  6.51962463E-04  5.60063131E-04
    4.36020829E-04       0.00109378       0.00389797       0.00430121       0.00305149       0.00134220  3.33881544E-04  2.04905660E-04  9.56571059E-05  2.73296550E-04  3.65568160E-04  3.38031710E-04  6.26716406E-05  6.05746905E-05  1.75758215E-04  2.89312047E-04  2.51903446E-04  2.31237890E-04  4.82361311E-05  8.17394151E-06
    1.38067635E-05  5.82800887E-05  5.97549562E-05  3.10662384E-05  3.83854572E-05  1.60734183E-05  5.38128625E-05  5.48818475E-05  1.58150075E-04  7.38231088E-04  6.34760238E-04       0.00115095  8.21740428E-04  1.75923569E-04  6.99551523E-05  5.23147916E-05  1.44425391E-04  9.96361597E-05  6.36885047E-05  2.53454602E-05
    1.44948852E-05  2.88423229E-05  1.17509311E-04  1.16194726E-04  1.37468250E-04  6.64809929E-05  3.77770688E-04  9.46854890E-04       0.00125935  4.94590088E-04  1.52624248E-04  2.92229654E-04  3.47804085E-04  2.22945095E-04  3.11087787E-04  2.25467402E-04  2.18399089E-04  3.49042153E-04  5.45498273E-04       0.00101928
    5.72435439E-05  1.24720231E-04  4.33387112E-04  8.51932409E-04  4.50316257E-04  8.61884598E-05  1.14402130E-04  1.52968447E-04  2.55317102E-04  3.54039766E-04  2.91392969E-04  1.67446369E-04  4.28488513E-05  2.33956685E-05  1.96598202E-05  1.81500113E-05  1.23203231E-04  1.46663512E-04  1.01528794E-04  9.83498111E-05
    1.58690329E-04  2.59311591E-04  9.29237672E-05  7.11675466E-05  2.54705419E-04  8.02892613E-05  3.88485542E-05  5.42997236E-05  2.51017097E-04  2.56332697E-04  2.56362526E-04  4.91493016E-04  3.03784463E-04  2.05165402E-04  1.28892214E-04  9.63425276E-05  7.42358863E-05  1.27676157E-04  5.97050132E-04  9.17205153E-04
    4.43469846E-04       0.00116455       0.00604682       0.00826953       0.00393695       0.00215425  5.30721555E-04  2.26291758E-04  2.21679731E-04  1.80907947E-04  2.66866114E-04  3.02288309E-04  1.20473733E-04  8.13949631E-05  6.94503600E-05  3.60749665E-04  2.12443102E-04  1.94930759E-04  7.80919881E-05  1.62283131E-05
    8.51387920E-06  3.60210414E-05  7.91916832E-05  3.73655139E-05  3.65937221E-05  2.89307198E-05  2.82171000E-05  6.90527228E-05  1.03512385E-04  4.24320351E-04       0.00110754  8.23646678E-04       0.00135249  4.03609193E-04  9.61604572E-05  6.28067803E-05  7.43651530E-05  1.19604416E-04  7.81607685E-05  5.37250806E-05
    2.21243200E-05  2.08753048E-05  1.05033574E-04  1.09085007E-04  1.67697537E-04  9.55751593E-05  2.37981692E-04  8.02693168E-04       0.00147240  6.56697560E-04  2.39071532E-04  2.45426117E-04  6.58924663E-04  4.36752746E-04  2.71823702E-04  4.37779447E-04  1.71697882E-04  1.87805134E-04  4.52627378E-04       0.00115866
    4.43123156E-05  1.34365922E-04  3.59313680E-04  8.34166821E-04  5.16453689E-04  1.97923099E-04  1.73505766E-04  2.03703135E-04  2.70928602E-04  3.59720255E-04  3.57990126E-04  2.77231705E-04  7.92609727E-05  2.66365733E-05  1.79584405E-05  1.94591764E-05  1.03604509E-04  1.56024444E-04  1.10621334E-04  1.00241751E-04