# File generated by Flopy version 3.5.0 on 02/26/2024 at 10:20:25.
BEGIN options
  TIME_UNITS  seconds
END options

BEGIN dimensions
  NPER  1
END dimensions

BEGIN perioddata
   21600.00000000  1       1.00000000
END perioddata

