# File generated by Flopy version 3.5.0 on 02/29/2024 at 16:16:49.
BEGIN options
END options

BEGIN griddata
  icelltype
    CONSTANT  0
  k
    INTERNAL  FACTOR  1.0
    1.51934479E-04  3.29112193E-05  4.62506199E-05  3.25929676E-05  4.31962557E-05  3.41789180E-04  1.38680107E-04  3.13674563E-04       0.00142825  1.21529981E-04  5.65589412E-05  4.84812437E-05  4.33150239E-05  1.56685660E-04  9.50993678E-05  1.26909764E-04  1.14867259E-04  4.16211384E-05  3.02812876E-05  2.76751292E-05
    2.57907361E-05  2.30399650E-04  6.35012958E-04  3.84984921E-04  6.30551709E-04       0.00102656  7.36031054E-04       0.00177255  2.35790488E-04  7.00417853E-05  5.75832134E-04  8.94309436E-04  2.12901847E-04  1.51944910E-04  7.53561740E-05  7.08082029E-04       0.01680645       0.00228764       0.00227867       0.00454710
         0.00244876  4.02561639E-04  2.10697849E-04  5.81703808E-05  3.10235004E-04  1.71580039E-04  1.78263811E-04  1.64062844E-04  1.95987985E-04  9.86284291E-05  1.51576424E-04  1.41642295E-04  1.99674200E-04  3.57510750E-04  1.50543243E-04  1.94100856E-04  6.62633616E-04  1.43833763E-04  6.17156600E-05  1.13040773E-04
    3.29548928E-04  5.53226047E-04  2.74919303E-04  7.39448589E-05  8.39802216E-05  1.49103087E-04  6.64312800E-04  4.78383343E-04  7.20499381E-04  9.86040636E-04  6.84253593E-04  1.14707631E-04  7.02617536E-05  2.21552386E-04  1.66956839E-04  2.46800409E-04  3.92406339E-04  1.80728925E-04  2.34581027E-04  5.20307478E-04
    9.87299422E-05  8.33161150E-04  2.70931707E-04  2.12655602E-04  3.37935994E-04  8.49473269E-04  9.15160733E-04       0.00264359  5.29655052E-04  3.08077242E-04  7.88736486E-04  3.14132572E-04  2.46476302E-04  2.15067909E-04  2.73704354E-05  6.66088985E-05  2.67635514E-04  3.15350225E-04  7.49082198E-05  2.20364487E-04
    2.29680877E-04  6.79681386E-05  5.26287406E-05  3.39482997E-05  5.09200495E-05  3.19292931E-04  1.87976447E-04  2.85538482E-04       0.00360218  4.78629384E-04  1.00493160E-04  4.48961721E-05  2.53291643E-05  6.03422824E-05  9.32010395E-05  6.06165519E-05  1.13839504E-04  1.23116990E-04  2.52074562E-05  4.87654953E-05
    2.25552586E-05  1.44028255E-04  3.63703345E-04  9.42326162E-04  5.81865841E-04       0.00130797  6.94104135E-04       0.00287399  7.71406686E-04  9.95320853E-05  2.38454392E-04  7.05681913E-04  4.53981760E-04  1.50235661E-04  6.76354363E-05  2.10597550E-04       0.00961734       0.00359284       0.00133007       0.00284556
         0.00219183  9.95681807E-04  3.90834879E-04  7.86284584E-05  1.47332892E-04  4.37939937E-04  1.27415914E-04  1.69901088E-04  1.87205742E-04  1.67684700E-04  8.59119483E-05  2.04835220E-04  8.81432260E-05  1.63398398E-04  1.80265624E-04  1.11379245E-04  5.89478304E-04  2.98395766E-04  1.63341891E-04  6.06044679E-05
    3.65034702E-04  4.64310668E-04  4.57447951E-04  7.04973706E-05  4.43254140E-05  1.01733835E-04  6.94249126E-04       0.00137346       0.00114902  6.36132488E-04  4.03925874E-04  2.33963080E-04  4.08710741E-05  1.72923556E-04  4.50779130E-04  1.96448254E-04  4.35550831E-04  2.74353955E-04  1.58291774E-04  4.00305716E-04
    2.59764014E-04  2.53394445E-04  7.26806929E-04  2.03365876E-04  6.40214132E-04  7.18374398E-04  8.54243916E-04       0.00258857       0.00103074  3.32051146E-04  5.72765046E-04  4.30050580E-04  1.30599919E-04  8.38553814E-04  5.13809676E-05  1.48651916E-05  1.72345052E-04  3.88993465E-04  8.97526498E-05  9.26359591E-05
    1.26516156E-04  9.12134576E-05  7.29913768E-05  2.86098285E-05  3.88295477E-05  1.08645464E-04  2.77089812E-04  1.25941218E-04       0.00100580       0.00150218  2.54621781E-04  7.45800064E-05  4.48897937E-05  4.75106194E-05  1.03059576E-04  6.12003185E-05  8.22563953E-05  1.00989624E-04  4.07076386E-05  5.91337890E-05
    1.49766522E-05  1.01482301E-04  3.90272132E-04  6.87613133E-04  7.02478941E-04  7.78055238E-04  7.90539668E-04       0.00209428       0.00444708  5.86099111E-04  1.45517378E-04  3.42738642E-04  8.50938145E-04  9.48486580E-05  1.17862732E-04  8.52408991E-05       0.00183450       0.00296851       0.00120401  9.18169672E-04
         0.00106238  7.85191446E-04  7.38891898E-04  1.05364339E-04  9.72299816E-05       0.00106431  3.21954567E-04  2.00661133E-04  4.30660116E-04  2.89367402E-04  5.71482626E-05  2.42115973E-04  1.45080964E-04  7.70241112E-05  2.52250602E-04  7.73727451E-05  2.01914277E-04  5.24690915E-04  1.41166134E-04  5.01780908E-05
    2.24170362E-04  2.15577151E-04  6.19379577E-04  1.02607650E-04  5.15416048E-05  6.94065234E-05  6.51443238E-04       0.00199391       0.00203834       0.00106823  1.80761561E-04  2.15043690E-04  5.18388643E-05  1.44284991E-04  1.56593005E-04  3.06830077E-04  3.43327350E-04  6.99866596E-04  1.44023988E-04  5.81219371E-04
    3.87373223E-04  1.84269877E-04       0.00118334  2.29013558E-04  3.16205626E-04  7.75647366E-04  9.06207796E-04       0.00217003       0.00230210  6.13277136E-04  4.77181155E-04  3.68216201E-04  7.98620195E-05  6.67009930E-04  1.65490422E-04  1.93304970E-05  3.67534138E-05  3.37695267E-04  2.06872491E-04  1.58175266E-04
    7.30238645E-05  6.02234723E-05  1.00040799E-04  2.88394139E-05  3.10130105E-05  8.23598327E-05  2.47920101E-04  1.85304606E-04  6.88672195E-04       0.00189346  4.54617841E-04  2.10459064E-04  5.48257613E-05  4.18366663E-05  1.12044693E-04  1.25111902E-04  5.04925652E-05  6.28268714E-05  3.92778853E-05  4.22010582E-05
    1.20413264E-05  7.52373231E-05  1.13292411E-04  8.88969851E-04  9.33306147E-04  6.17872281E-04  6.13413104E-04       0.00213993       0.00648299       0.00236202  1.59287363E-04  1.32292734E-04  5.12629819E-04  1.38668666E-04  1.25990200E-04  9.61250345E-05  4.77834023E-04       0.00213741       0.00148255  9.46490723E-04
    9.07894925E-04  5.60814339E-04  6.04998637E-04  6.36361653E-04  5.81180724E-05  4.82250270E-04  7.39284317E-04  1.78442281E-04  4.62359515E-04  6.76186746E-04  6.28949224E-05  7.68570697E-05  2.73035488E-04  5.42704355E-05  1.69321954E-04  5.19908136E-05  1.27958563E-04  2.98273279E-04  1.40770093E-04  1.09156753E-04
    1.45265267E-04  1.27629448E-04  7.75319466E-04  2.04829808E-04  2.81263836E-05  7.94310790E-05  6.35971017E-04       0.00127370       0.00281980       0.00254481  1.74329359E-04  1.33946164E-04  1.29884198E-04  1.17718936E-04  1.45303686E-04  1.73255916E-04  4.23805047E-04  6.94407234E-04  3.98719218E-04  5.11245722E-04
    2.93105990E-04  1.19115510E-04  6.19449605E-04  2.49835126E-04  9.91011714E-05  2.02559375E-04  6.76564726E-04       0.00128044       0.00229973       0.00118100       0.00146384  7.78395672E-04  2.00368225E-04  5.10534692E-04  8.30207335E-04  7.15222138E-05  3.25440894E-05  1.44596919E-04  2.57166303E-04  1.54865708E-04
    2.09652570E-04  2.86693209E-05  8.49666195E-05  1.88858971E-05  4.34400469E-05  5.70541400E-05  1.05316244E-04  2.71607144E-04  4.74719631E-04       0.00153073       0.00118130  6.27514779E-04  6.24053262E-05  4.24539718E-05  8.95423749E-05  2.03883845E-04  4.26280317E-05  5.87984179E-05  3.06476717E-05  1.47923943E-05
    1.78332452E-05  2.54502837E-05  5.86626324E-05  4.44015671E-04  9.96795640E-04  4.55014352E-04  5.52722928E-04       0.00110500       0.00922348       0.00610275  5.73390596E-04  7.64103531E-05  3.41250330E-04  3.72525236E-04  2.25832396E-04  1.87449602E-04  1.91690020E-04  7.75107495E-04       0.00118503  6.41393749E-04
         0.00107077  3.85939410E-04  3.00367119E-04  8.45493322E-04  6.65529569E-05  1.51287904E-04  5.11080735E-04  1.35517537E-04  3.76083609E-04       0.00134623  1.25744924E-04  4.63607783E-05  3.59313145E-04  1.41843053E-04  9.22368273E-05  5.29727431E-05  5.41756055E-05  1.44959088E-04  2.20608086E-04  1.02998094E-04
    9.98756679E-05  1.16643838E-04  3.51188493E-04  4.32702598E-04  3.89978854E-05  1.03809591E-04  3.97474665E-04       0.00148885       0.00212894       0.00351142  3.76495313E-04  1.22432161E-04  9.41245417E-05  1.08923840E-04  1.19815214E-04  9.23411554E-05  4.72201541E-04  3.79001773E-04  3.84529034E-04  2.49123202E-04
    2.55337704E-04  8.57694587E-05  1.66352428E-04  7.84997232E-04  1.09342431E-04  6.17057037E-05  3.63448259E-04       0.00163560       0.00177438       0.00193768       0.00178177       0.00291112  3.96742526E-04       0.00100442  8.19801991E-04  2.72888661E-04  7.08783975E-05  7.26829797E-05  1.24910935E-04  1.09691076E-04
    6.52086386E-04  2.95056387E-05  2.88139472E-05  2.27922630E-05  4.97235416E-05  5.75716735E-05  9.81126135E-05  1.46044435E-04  3.20043477E-04       0.00198764       0.00187695       0.00119775  1.77640327E-04  7.78209529E-05  3.92619092E-05  4.28680212E-04  2.97221746E-05  5.32584506E-05  2.07386411E-05  1.46801277E-05
    1.37049390E-05  1.88786871E-05  4.17805574E-05  1.58332328E-04       0.00102208  5.47457614E-04  5.98198543E-04  4.27629696E-04       0.00674169       0.00612302  9.65363159E-04  1.12589353E-04  1.84160048E-04  2.71272891E-04  3.12388574E-04  4.15565322E-04  8.50909996E-05  4.70553341E-04  5.12216063E-04  7.56501107E-04
    4.75391188E-04  8.50895651E-04  2.32018071E-04  6.26954758E-04  1.63270790E-04  1.32961177E-04  1.94858631E-04  1.57210096E-04  3.06238028E-04  7.07273493E-04  3.28912903E-04  4.06625334E-05  1.22570814E-04  1.83098533E-04  1.51788953E-04  4.96224249E-05  2.67524283E-05  7.02640139E-05  2.93304216E-04  1.46295663E-04
    9.88599650E-05  7.13705819E-05  1.55514256E-04  3.26243053E-04  6.26065214E-05  5.08013235E-05  3.73913404E-04       0.00164259       0.00151277       0.00274261       0.00142322  8.82153002E-05  1.11187325E-04  6.68983135E-05  5.82837738E-05  7.26370256E-05  6.82192033E-04  3.22277395E-04  5.63797004E-04  1.72905127E-04
    2.20216243E-04  7.01029074E-05  7.15291313E-05  5.96667561E-04  1.94350285E-04  4.70716466E-05  1.30741621E-04  5.55284665E-04       0.00111253       0.00256139       0.00146358       0.00250465       0.00128411  9.35669709E-04  7.10634318E-04  5.61339380E-04  2.09546376E-04  1.03271363E-04  1.08049244E-04  5.53708505E-05
         0.00141286  7.38482792E-05  1.58855291E-05  3.28012439E-05  6.96275619E-05  1.42206864E-04  2.22262567E-04  5.27797319E-05  1.95928043E-04  8.74987503E-04       0.00289229       0.00164151  5.12885105E-04  7.94216884E-05  8.66848391E-05  3.52015797E-04  8.11548028E-05  3.28626746E-05  4.84879009E-05  1.00785683E-05
    1.25182939E-05  1.88620081E-05  2.60155488E-05  5.01202935E-05  3.59127400E-04  2.59619877E-04  3.54253449E-04  1.79709282E-04       0.00195078       0.00347065       0.00154460  2.74756272E-04  1.60018260E-04  2.06252580E-04  5.89048771E-04  4.33600698E-04  1.24456501E-04  4.74097552E-04  4.95280589E-04       0.00124033
    4.02614740E-04       0.00149015  1.63151922E-04  2.38194687E-04  1.26284730E-04  1.06903236E-04  1.23459029E-04  1.70143455E-04  1.42154548E-04  3.94385484E-04  3.50494142E-04  6.95778912E-05  5.06076618E-05  1.53741723E-04  1.58992284E-04  5.14811538E-05  3.80016767E-05  2.81002615E-05  1.69767731E-04  3.20980471E-04
    7.05774915E-05  4.38668096E-05  7.05229735E-05  2.47996150E-04  9.94816241E-05  5.23521243E-05  1.35122497E-04       0.00144967       0.00152286       0.00501741       0.00271451  2.89311876E-04  1.80713522E-04  7.65794524E-05  1.51238754E-05  3.30583233E-05  2.52719933E-04  1.85611889E-04  2.21484528E-04  1.20239599E-04
    1.25730491E-04  1.29485788E-04  8.18621022E-05  2.03823849E-04  2.61265876E-04  5.45770728E-05  7.31699230E-05  3.41645266E-04  5.57572607E-04       0.00379405       0.00173056       0.00227229       0.00245796  4.65174033E-04  6.15691996E-04  4.64298996E-04  2.42738793E-04  1.81984389E-04  1.12087893E-04  3.24985226E-05
         0.00313931  4.48752315E-04  1.97224538E-05  2.28468605E-05  8.28914701E-05  1.99860841E-04  2.49717749E-04  1.11074774E-04  9.51541528E-05  5.97948734E-04       0.00193428       0.00363557  7.09974381E-04  1.13393466E-04  8.45109967E-05  1.54471512E-04  2.07772639E-04  3.00943450E-05  5.89398043E-05  1.56857808E-05
    1.58364903E-05  1.10770450E-05  1.48016934E-05  3.44602813E-05  1.62833288E-04  2.85545768E-04  2.69156201E-04  1.69108947E-04  4.81256803E-04       0.00119810       0.00135103  7.84193106E-04  1.73017000E-04  2.95865050E-04  3.65630850E-04  4.81182850E-04  1.99439159E-04  2.44288070E-04  3.59357431E-04  9.94171226E-04
    5.03764646E-04  7.30629284E-04  4.51383409E-04  1.68522266E-04  1.00233567E-04  6.25723441E-05  1.19462798E-04  1.05337334E-04  1.16968030E-04  1.94743508E-04  1.70699142E-04  1.39284611E-04  7.58963508E-05  1.01758167E-04  9.29381968E-05  1.02835378E-04  3.57994016E-05  1.47387625E-05  1.42962769E-04  2.81200574E-04
    1.00535811E-04  7.58807515E-05  4.38568448E-05  1.21221991E-04  2.65120089E-04  6.68396617E-05  9.15454138E-05  4.78750979E-04       0.00157273       0.00154492       0.00299654  4.09208941E-04  1.32780163E-04  9.08334466E-05  1.26427021E-05  9.77939035E-06  5.39112476E-05  1.83143656E-04  1.36125989E-04  8.82542770E-05
    7.90771090E-05  2.34462325E-04  2.49477936E-04  1.95186599E-04  4.46734843E-04  7.07992338E-05  1.09069749E-04  2.22016122E-04  3.32669348E-04       0.00126370       0.00253133       0.00172556       0.00123353  2.90740916E-04  2.99328748E-04  3.35802516E-04  2.82297292E-04  2.86157644E-04  5.91904536E-05  2.74692937E-05
         0.00294659       0.00106683  8.04423897E-05  3.13685053E-05  7.98845783E-05  1.29554538E-04  3.55067874E-04  1.36166739E-04  4.65226756E-05  4.34128223E-04       0.00116970       0.00195506       0.00165383  1.94062725E-04  7.93580290E-05  8.38913289E-05  5.97944811E-04  7.35324054E-05  6.71667268E-05  5.29374503E-05
    2.31961705E-05  8.25886187E-06  2.24234123E-05  1.87517954E-05  1.11357388E-04  3.49647630E-04  4.04575299E-04  1.12878329E-04  1.59532119E-04  2.35926277E-04  3.26452545E-04  4.75051688E-04  1.39254001E-04  3.92575380E-04  2.67031030E-04  6.28699467E-04  4.17008375E-04  3.11425248E-04  3.71539305E-04  8.20334321E-04
    5.85727947E-04  4.72677518E-04  5.39992574E-04  1.79776874E-04  1.08690023E-04  9.96904284E-05  6.90751002E-05  9.30184358E-05  8.69332039E-05  9.95617141E-05  1.27564159E-04  1.03695126E-04  1.98521714E-04  1.63547905E-04  4.98701608E-05  1.16757673E-04  3.47624209E-05  3.92239901E-05  1.00519788E-04  1.66057770E-04
    8.18032874E-05  1.46153406E-04  2.07890875E-05  5.29083072E-05  1.64646242E-04  7.99219097E-05  7.95660383E-05  2.53638321E-04       0.00104443       0.00100551       0.00240012  3.17255780E-04  1.14726000E-04  9.11922701E-05  2.37897789E-05  1.51715854E-05  2.34793671E-05  1.31113354E-04  1.04382947E-04  1.21310694E-04
    5.84338582E-05  1.52554966E-04  2.84705129E-04  4.12027939E-04  2.13036788E-04  1.83875838E-04  1.10535159E-04  1.83442819E-04  4.95843617E-04  3.77697318E-04       0.00151626       0.00151558       0.00174780  1.72423770E-04  1.17490379E-04  1.92287199E-04  2.90062971E-04  1.38756891E-04  5.44695563E-05  2.12579865E-05
    7.74066236E-04       0.00152120  1.89181589E-04  5.83259964E-05  3.74463282E-05  1.40056878E-04  2.59474624E-04  1.88016052E-04  7.63325433E-05  3.12006026E-04  7.70054889E-04       0.00108410       0.00257592  8.56859988E-04  1.34578794E-04  5.57792813E-05  5.66189413E-04  2.70202682E-04  1.02959205E-04  1.06539820E-04
    2.95015115E-05  5.14551571E-06  1.34518497E-05  9.88985718E-06  7.76094272E-05  3.18428765E-04  4.62898848E-04  2.30466440E-04  1.19263924E-04  1.38073808E-04  1.79610277E-04  6.06353172E-04  8.71436809E-05  3.00717073E-04  2.82505117E-04  3.37032288E-04  8.76688920E-04  6.85765094E-04  4.52835619E-04  3.96330605E-04
    8.39491938E-04  3.98435503E-04  2.56305624E-04  2.55349480E-04  1.33772002E-04  8.52067501E-05  1.03796873E-04  1.24874010E-04  4.45596606E-05  7.39522442E-05  2.61972940E-04  3.92970738E-05  1.62691522E-04  3.16251682E-04  5.65316887E-05  4.32684156E-05  3.92596146E-05  3.41678578E-05  1.56434052E-04  1.82498600E-04
    1.08547877E-04  1.52292718E-04  9.00950035E-05  2.96444774E-05  8.13052832E-05  5.39711833E-05  1.07696170E-04  2.26425554E-04  3.69586205E-04  9.95880865E-04       0.00161223  3.55688970E-04  1.11433729E-04  5.04386039E-05  3.22955316E-05  2.01950471E-05  2.34406594E-05  3.99811835E-05  1.20061400E-04  1.68529383E-04
    1.02232031E-04  6.47602054E-05  3.39195923E-04  4.99484431E-04  1.98798800E-04  5.13277300E-04  1.26335520E-04  1.01433827E-04  5.79717628E-04  4.39881329E-04  4.58113937E-04       0.00125020       0.00147989  3.47362344E-04  1.39080160E-04  1.74601915E-04  1.88055961E-04  1.87157846E-04  3.84011222E-05  1.34691833E-05
    2.14476010E-04       0.00107172  5.84093459E-04  8.86470551E-05  6.10073895E-05  8.89761539E-05  1.79928128E-04  1.42887266E-04  1.71169117E-04  1.00306118E-04  8.56780891E-04  4.55693297E-04       0.00115049       0.00251452  5.00190665E-04  7.18625816E-05  2.53778708E-04  4.99841581E-04  2.45700133E-04  1.68215755E-04
    6.45017870E-05  6.78613032E-06  1.61955601E-05  1.52431583E-05  5.50392235E-05  3.38276085E-04  3.57376881E-04  4.35938725E-04  1.43453640E-04  1.05078881E-04  2.94823603E-04  7.51695980E-04  1.64083143E-04  2.73360527E-04  2.15664128E-04  1.17862409E-04  4.25612162E-04       0.00113295  3.82676258E-04  3.63410136E-04
    6.47986987E-04  7.02674262E-04  1.83021943E-04  2.42884200E-04  9.75145786E-05  9.08647881E-05  2.03897800E-04  1.12628835E-04  2.32816225E-05  5.99393629E-05  2.43819892E-04  9.43571506E-05  4.50819374E-05  3.46730128E-04  1.01402392E-04  1.13727108E-04  5.50290083E-05  5.05419995E-05  2.70955368E-04  2.62637004E-04
    1.27512307E-04  1.60087554E-04  2.13347574E-04  4.28840420E-05  6.41264860E-05  2.39654449E-05  3.07144236E-05  1.31456868E-04  1.40171107E-04  2.87548733E-04  7.36621761E-04  6.64136000E-04  1.56153236E-04  1.13582366E-04  8.72155295E-05  4.27072517E-05  4.92646698E-05  2.84964011E-05  6.08219443E-05  2.22099165E-04
    3.32422994E-04  7.26721443E-05  2.21514085E-04  2.76944941E-04  3.10871896E-04  3.09704988E-04  2.71393165E-04  5.71620768E-05  3.92037287E-04  5.28468170E-04  6.94118402E-04       0.00147081  6.97268170E-04       0.00101425  3.34524157E-04  1.72525451E-04  1.38587724E-04  2.87214329E-04  3.45104682E-05  1.80775631E-05
    7.52620569E-05  5.47740186E-04  7.15911357E-04  2.16876115E-04  7.18609878E-05  7.01457010E-05  8.79258528E-05  9.61898588E-05  1.39128392E-04  8.33501745E-05  5.94370650E-04  3.49697508E-04       0.00163335       0.00504971       0.00197029  2.54218341E-04  4.82345560E-04  5.52404300E-04  5.97957747E-04  5.74975192E-04
    1.09552982E-04  6.73384561E-06  7.88317089E-06  2.14615679E-05  2.57889328E-05  4.29756140E-04  2.74191190E-04  4.52042107E-04  2.35916151E-04  1.30471039E-04  4.17115785E-04  5.64913439E-04       0.00120592  2.06461146E-04  2.97463936E-04  1.38097300E-04  2.75147619E-04  7.50282124E-04  3.18508757E-04  2.13070494E-04
    2.53424934E-04  5.79788950E-04  3.45550748E-04  1.96421151E-04  8.76759239E-05  8.33197340E-05  2.88415696E-04  2.65567761E-04  3.43310576E-05  3.23497569E-05  1.83371494E-04  4.45679882E-04  4.78385047E-05  7.46116634E-05  2.54871748E-04  1.84268593E-04  1.17450618E-04  4.04198567E-05  1.87245814E-04  1.96984184E-04
    2.91302456E-04  1.10316649E-04  1.90527040E-04  7.39047321E-05  6.44816860E-05  2.47147990E-05  1.65872117E-05  6.44402848E-05  1.28166945E-04  1.07603510E-04  8.51553073E-04       0.00118255  3.19584117E-04  4.63902695E-04  2.62112218E-04  8.19413131E-05  9.23864547E-05  5.73110199E-05  3.24691241E-05  1.98410841E-04
    5.48570839E-04  9.24735268E-05  1.87041092E-04  2.35799965E-04  1.70341564E-04  2.04919781E-04  3.31307082E-04  5.05616278E-05  1.13092628E-04  5.58245333E-04       0.00136570       0.00238081  4.58685091E-04  9.75960562E-04  5.89181736E-04  4.51356735E-04  1.29290427E-04  2.03295294E-04  6.66042407E-05  5.70877452E-05
    4.57046126E-05  1.07012016E-04  6.95580390E-04  3.28042649E-04  1.19546029E-04  1.50578516E-04  1.08649872E-04  1.20912417E-04  2.15391366E-04  1.82134718E-04  5.45059675E-04  4.65245833E-04       0.00196239       0.00479783       0.00335564  4.27740782E-04  8.90399483E-04  3.92247695E-04  8.56369309E-04  8.53612629E-04
    2.16708070E-04  2.14079491E-05  4.49100907E-06  1.21452473E-05  1.60141248E-05  3.69331426E-04  4.54697960E-04  8.53960891E-04  3.31809369E-04  4.03333470E-04  3.02869898E-04  8.35930538E-04       0.00131988  5.62544326E-04  3.41916649E-04  1.97240850E-04  1.58135240E-04       0.00109359  3.85768310E-04  1.27858392E-04
    3.04422728E-04  3.80082832E-04  2.92570653E-04  2.89802822E-04  8.24512356E-05  3.78175247E-05  1.52176920E-04  4.53756975E-04  3.26888756E-05  3.90006129E-05  7.26544370E-05  6.52281983E-04  1.61361228E-04  3.65964901E-05  1.68635019E-04  1.42393429E-04  3.17468950E-04  9.73195612E-05  5.90957753E-05  1.55848240E-04
    6.61749983E-04  2.70086630E-04  3.01453240E-04  1.21875321E-04  5.87798899E-05  4.06652958E-05  2.10937600E-05  2.52633322E-05  1.05139515E-04  8.51556677E-05  5.33673862E-04       0.00163960  5.59378425E-04       0.00139627  7.20659318E-04  2.59793934E-04  1.88916362E-04  9.61280317E-05  3.46865552E-05  1.60896210E-04
    6.46251671E-04  6.43746227E-05  1.89279694E-04  1.34364864E-04  1.33483468E-04  1.49426403E-04  1.98294823E-04  6.20989486E-05  5.06529311E-05  1.50424467E-04       0.00141717       0.00550714       0.00173458  5.53446353E-04       0.00117344       0.00174277  2.81984942E-04  2.37338953E-04  1.12715206E-04  1.03655101E-04
    6.87663275E-05  7.01767886E-05  3.39955007E-04  1.37329433E-04  1.23229762E-04  2.11971108E-04  1.35536461E-04  1.10563631E-04  3.59275128E-04  2.49361249E-04  7.23308223E-04  8.48387495E-04       0.00244381       0.00641450       0.00287028  6.86469814E-04  5.72432731E-04  7.02204429E-04  9.37234976E-04  8.25127250E-04
    4.06064477E-04  1.53335183E-04  1.00083142E-05  9.32947636E-06  1.80920518E-05  9.26759966E-05  6.41673649E-04       0.00107618  5.21837999E-04  4.22620377E-04  4.72175537E-04  9.72749277E-04  8.48306624E-04       0.00139657  4.44257054E-04  3.02770509E-04  1.77699850E-04  8.20814962E-04  5.94653070E-04  1.03796917E-04
    4.09108573E-04  2.72444908E-04  1.88099677E-04  2.49355728E-04  5.33656799E-05  1.27451712E-05  7.56906887E-05  2.05143518E-04  1.23134396E-04  5.59977044E-05  6.14771569E-05  3.42692499E-04  9.94421573E-04  8.08673379E-05  1.96163935E-04  1.74569477E-04  1.82673550E-04  2.06307646E-04  5.32719207E-05  6.32921673E-05
    2.63501035E-04  5.66895723E-04  4.27836056E-04  1.57600536E-04  3.82298264E-05  5.80160704E-05  6.01661053E-05  2.66703718E-05  9.16780745E-05  7.24542770E-05  4.13424166E-04       0.00285662       0.00125040       0.00100179       0.00219365  5.34263089E-04  4.52200866E-04  1.36864116E-04  6.78998012E-05  1.12693886E-04
    3.60955715E-04  1.02797252E-04  7.18545254E-05  1.02751496E-04  1.42311023E-04  1.82836826E-04  1.23528333E-04  1.70230953E-04  5.11120380E-05  7.15195570E-05  7.20436726E-04       0.00331473       0.00178518  5.67891560E-04  5.97011799E-04       0.00186440  5.84091063E-04  6.45845881E-04  1.05617905E-04  2.05872604E-04
    4.62525463E-05  4.54565298E-05  1.67667698E-04  8.81405717E-05  5.99824171E-05  1.15099061E-04  3.34737195E-04  1.54621834E-04  3.18801152E-04  7.19061814E-04       0.00174863       0.00112126       0.00376288       0.00839134       0.00409650       0.00202434  3.51865661E-04  7.09955801E-04  6.08543061E-04  7.80883812E-04
    2.15990855E-04  3.25636651E-04  6.34753734E-05  2.55557490E-05  1.21464165E-05  3.99875534E-05  4.76673136E-04       0.00143689  5.97104462E-04  3.82118006E-04  3.23307426E-04  6.72912122E-04       0.00120626       0.00146720  4.39298265E-04  3.40768751E-04  1.22622699E-04  3.86173645E-04  8.09877468E-04  2.81090770E-04
    2.91674535E-04  8.39781980E-04  2.56358238E-04  2.20685603E-04  3.67599773E-05  2.30675590E-05  1.82499823E-05  1.25537345E-04  3.44155559E-04  1.41276343E-04  8.65258431E-05  1.40615594E-04  5.14226990E-04  1.43114735E-04  1.28454060E-04  1.90022448E-04  5.40808501E-05  1.71902941E-04  1.23678032E-04  4.07095674E-05
    1.41601794E-04  4.43650775E-04  5.47588961E-04  3.22796469E-04  4.68138079E-05  6.09072910E-05  1.07739326E-04  1.48968081E-04  1.19515246E-04  8.94116164E-05  2.21701258E-04       0.00137178       0.00411474  7.85736301E-04       0.00286638  5.76153057E-04       0.00134904  1.08315380E-04  8.79495110E-05  7.89718622E-05
    4.60524900E-04  1.56831319E-04  6.17075608E-05  7.57226531E-05  9.50528134E-05  1.36505556E-04  9.70500848E-05  1.00155174E-04  4.05445182E-05  6.61107876E-05  2.93255658E-04       0.00147477       0.00175878  6.66354116E-04  1.96789389E-04  8.03905106E-04       0.00121656  6.81141073E-04  7.70038971E-04  4.42191179E-04
    3.48093638E-05  6.70416933E-05  1.51124352E-04  1.89991648E-04  7.46277913E-05  4.66538444E-05  4.80228204E-04  1.59426841E-04  1.44865936E-04  8.58033828E-04       0.00208639       0.00113823       0.00406986       0.00412374       0.00319920       0.00338130  7.94281869E-04  3.91052221E-04  7.45290618E-04       0.00113953
    2.68693194E-04  1.92541413E-04  2.28130041E-04  7.17948937E-05  2.62659863E-05  9.64113336E-06  1.06772458E-04       0.00128806       0.00161699  4.01885832E-04  1.94545829E-04  4.76082409E-04       0.00144850       0.00115347  9.91426368E-04  2.78412842E-04  1.53562443E-04  2.72122349E-04  4.08666731E-04  4.91630096E-04
    4.09221972E-04  8.47810252E-04  6.37531046E-04  2.32366200E-04  5.55089087E-05  1.85399276E-05  1.01977477E-05  7.26149958E-05  2.35160362E-04  1.43693180E-04  1.22243426E-04  1.17932077E-04  1.70232862E-04  2.71346709E-04  1.57378147E-04  1.98047206E-04  3.76868447E-05  5.65880916E-05  1.14865650E-04  1.19418863E-04
    1.68622223E-04  2.32937077E-04  4.74623624E-04  4.95985224E-04  1.84988141E-04  4.51972331E-05  8.24968744E-05  3.75112909E-04  1.45245278E-04  2.14738036E-04  2.02684632E-04  3.03336954E-04       0.00445369       0.00208184  9.35828046E-04  8.23622674E-04  8.77116108E-04  1.48480810E-04  3.68448104E-05  4.93801233E-05
    1.34625957E-04  2.00055246E-04  1.60936414E-04  6.25893671E-05  7.23736843E-05  1.35207665E-04  1.33743414E-04  9.53079321E-05  3.93038251E-05  9.69760418E-05  1.31498827E-04       0.00105545       0.00134945       0.00104077  2.34865017E-04  4.38957226E-04  5.25200610E-04  4.83337011E-04  9.93426600E-04  4.38352375E-04
    2.98263588E-05  9.09951333E-05  9.68435075E-05  3.72840004E-04  1.38460819E-04  2.12022531E-05  1.51455932E-04  1.05833569E-04  7.06999388E-05  3.18839882E-04       0.00135347       0.00116800       0.00197435       0.00266537       0.00332825       0.00553087       0.00217191  4.76359420E-04  5.21329315E-04       0.00105507
    6.00569942E-04  2.54926636E-04  1.30482247E-04  2.04124095E-04  8.21475880E-05  1.13240451E-05  1.73395837E-05  9.73577938E-04       0.00292383  7.45192041E-04  2.90861043E-04  3.18439217E-04  6.85545816E-04       0.00200837       0.00127192  1.23804429E-04  1.28751434E-04  2.07340343E-04  8.49924742E-05  3.05343472E-04
    3.36801763E-04  3.27838042E-04  7.90226285E-04  5.25100735E-04  1.88225099E-04  6.74133905E-05  2.23130907E-05  4.95860714E-05  2.86610294E-04  1.78669747E-04  7.18491723E-05  1.32883935E-04  9.81751461E-05  2.27803907E-04  2.26488747E-04  1.87549796E-04  5.09696582E-05  2.73745755E-05  3.52219091E-05  1.52187967E-04
    1.26145829E-04  3.90874122E-04  2.23856746E-04  2.93917127E-04  9.83004030E-04  1.20547713E-04  6.31207171E-05  1.76964880E-04  4.37740736E-04  2.57036194E-04  2.28984349E-04  5.24783524E-05  9.08079961E-04       0.00161216  6.85091670E-04  6.27253137E-04  3.82877438E-04  2.07247552E-04  5.85892258E-05  4.05284732E-05
    4.95759198E-05  3.02241861E-04  2.15658222E-04  8.65125737E-05  1.47792236E-04  1.24015040E-04  1.98333931E-04  2.46133857E-04  6.64450094E-05  4.02777025E-05  6.89144759E-05  2.70469059E-04  8.59873967E-04  4.48291101E-04  5.54902621E-04  2.24024189E-04  5.17900110E-04  3.52753687E-04  3.86338456E-04  3.52638163E-04
    7.61385190E-05  8.03383944E-05  6.61037466E-05  3.24802806E-04  3.61227096E-04  3.49610603E-05  6.51007038E-05  9.06215508E-05  3.18649508E-05  1.75264459E-04  5.32861989E-04  6.43544988E-04  7.35650430E-04       0.00117691       0.00275040       0.00414694       0.00792803       0.00107763  3.92930031E-04  4.10989873E-04
         0.00207672  2.20222964E-04  1.23302320E-04  2.66919724E-04  2.01660256E-04  4.85310717E-05  9.43167270E-06  2.46915134E-04       0.00301786       0.00136837  5.07085773E-04  1.73358213E-04  2.60337625E-04       0.00116004       0.00121187  1.20841676E-04  1.29462758E-04  1.17426148E-04  8.05669836E-05  1.66012679E-04
    6.27666461E-04  1.87344690E-04  7.19116875E-04  4.67701914E-04  5.13886283E-04  3.16546396E-04  5.39850920E-05  5.16210924E-05  3.43125851E-04  2.07557388E-04  3.27946265E-05  9.42765709E-05  6.66810260E-05  1.53038652E-04  2.23609575E-04  1.92156415E-04  4.94836042E-05  4.28697158E-05  5.11174053E-05  9.88036993E-05
    7.84588142E-05  4.20063204E-04  1.47598924E-04  1.33359375E-04  9.67731990E-04  4.77973760E-04  7.81474501E-05  6.24918742E-05  3.80777758E-04  3.86136106E-04  4.28281841E-04  6.73632742E-05  9.05839482E-05  6.71651620E-04  5.14493956E-04  5.07953157E-04  1.87774690E-04  1.76976760E-04  9.11197174E-05  5.57679285E-05
    2.88141609E-05  3.10008945E-04  1.38966241E-04  1.81965241E-04  5.26722456E-05  1.41618138E-04  1.62879193E-04  3.96910418E-04  2.37774967E-04  8.36178977E-05  4.15398741E-05  7.76175759E-05  5.90576848E-04  3.85296806E-04  6.08106118E-04  3.21009679E-04  7.15282939E-04  3.00055491E-04  2.28050011E-04  2.25526747E-04
    1.70445859E-04  9.40450925E-05  8.95702188E-05  1.43841238E-04  2.14954991E-04  4.45714060E-05  5.03694593E-05  8.84107174E-05  1.69498812E-05  1.71783438E-04  2.60163255E-04  3.68573433E-04  2.59344039E-04  4.56819211E-04       0.00149296       0.00500075       0.00539430       0.00182742  2.81714348E-04  2.53603582E-04