# File generated by Flopy version 3.5.0 on 02/29/2024 at 16:00:13.
BEGIN griddata
  strt
    INTERNAL  FACTOR  1.0
        15.00000000      15.00000000      15.00000000      15.00000000      15.00000000      15.00000000      15.00000000      15.00000000      15.00000000      15.00000000      15.00000000      15.00000000      15.00000000      15.00000000      15.00000000      15.00000000      15.00000000      15.00000000      15.00000000      15.00000000
        15.00000000      15.00000000      15.00000000      15.00000000      15.00000000      15.00000000      15.00000000      15.00000000      15.00000000      15.00000000      15.00000000      15.00000000      15.00000000      15.00000000      15.00000000      15.00000000      15.00000000      15.00000000      15.00000000      15.00000000
        15.00000000      15.00000000      15.00000000      15.00000000      15.00000000      15.00000000      15.00000000      15.00000000      15.00000000      15.00000000      15.00000000      15.00000000      15.00000000      15.00000000      15.00000000      15.00000000      15.00000000      15.00000000      15.00000000      15.00000000
        15.00000000      15.00000000      15.00000000      15.00000000      15.00000000      15.00000000      15.00000000      15.00000000      15.00000000      15.00000000      15.00000000      15.00000000      15.00000000      15.00000000      15.00000000      15.00000000      15.00000000      15.00000000      15.00000000      15.00000000
        15.00000000      15.00000000      15.00000000      15.00000000      15.00000000      15.00000000      15.00000000      15.00000000      15.00000000      15.00000000      15.00000000      15.00000000      15.00000000      15.00000000      15.00000000      15.00000000      15.00000000      15.00000000      15.00000000      15.00000000
        15.10072115      15.09053462      15.05023299      15.04443894      15.04481543      15.04552736      15.05724771      15.06414662      15.06795880      15.06135028      15.06509049      15.08188428      15.08085802      15.08748368      15.08611369      15.07282583      15.07299505      15.05991351      15.04819960      15.06035472
        15.06240869      15.05826263      15.06653259      15.07257935      15.08995272      15.08861494      15.08826320      15.11590439      15.08649763      15.08112308      15.08641116      15.08196241      15.09128168      15.11353785      15.10916168      15.15060161      15.16232938      15.16071971      15.14878474      15.16794978
        15.15900375      15.15005842      15.14424341      15.13875805      15.14265059      15.14247804      15.13610473      15.13864093      15.11749734      15.11401606      15.10520483      15.07771397      15.08965734      15.08351059      15.09154176      15.09975723      15.11004419      15.11587507      15.14223788      15.13365198
        15.11057677      15.12430003      15.10730326      15.12696439      15.15642532      15.18303493      15.17375663      15.16028273      15.16579847      15.16608275      15.19570932      15.22830409      15.22731127      15.23172514      15.22209128      15.15930857      15.12444483      15.09351996      15.07594522      15.07670996
        15.08235561      15.09501328      15.11200999      15.09805252      15.11600788      15.10343726      15.10674795      15.14236767      15.13700570      15.12877228      15.14157192      15.15913489      15.15910206      15.12842252      15.09212620      15.07608680      15.07224496      15.07584392      15.09423592      15.09871071
        15.18225813      15.17483888      15.12217085      15.09405870      15.09996184      15.09313511      15.10215803      15.12054270      15.12533379      15.13359232      15.13821705      15.14775881      15.15602625      15.15344920      15.15534244      15.13644120      15.12287701      15.12026461      15.10390269      15.10456661
        15.11733035      15.11746010      15.12774460      15.13148856      15.13917536      15.16385046      15.18147766      15.22871193      15.20396908      15.17741415      15.17881742      15.17993404      15.20012900      15.22526326      15.24086658      15.28276422      15.30857108      15.30767242      15.31324960      15.29061124
        15.29125212      15.27518174      15.26761396      15.27264955      15.27577996      15.26420782      15.25141483      15.24262996      15.23365562      15.19765413      15.19279945      15.16870866      15.16123302      15.16445816      15.16895111      15.19301862      15.20335680      15.22048581      15.24957118      15.24666038
        15.22892628      15.22931890      15.20699531      15.22055802      15.24632753      15.27421965      15.29781318      15.28081374      15.28051758      15.29257457      15.31832478      15.35505039      15.36173094      15.36251658      15.35509821      15.29181333      15.24131511      15.19681738      15.16758484      15.15557577
        15.16068288      15.17537074      15.19971479      15.19392973      15.18403057      15.19625031      15.20078281      15.21886250      15.23027149      15.23200126      15.23173326      15.26068076      15.27563725      15.24288425      15.19939963      15.16762060      15.15483956      15.15895586      15.18016514      15.19380213
        15.26816322      15.25234916      15.19938515      15.15803381      15.15865096      15.14997336      15.15620536      15.17094160      15.18723244      15.19820307      15.20416381      15.21607616      15.22576635      15.21768202      15.20790267      15.19308983      15.16970460      15.16521067      15.15627386      15.15024661
        15.16436637      15.16927083      15.17765589      15.18654981      15.18691995      15.21909051      15.26642654      15.30754340      15.32498675      15.29155220      15.28235117      15.28347598      15.30450005      15.32543266      15.37501121      15.40044719      15.43429616      15.44703734      15.46679910      15.42839254
        15.39611508      15.38706069      15.37148591      15.37032666      15.37420620      15.36859716      15.35893976      15.33476366      15.32738066      15.28827937      15.25589234      15.24861155      15.22915086      15.23751875      15.24551514      15.26853982      15.28330094      15.30470826      15.32412110      15.33088934
        15.31707824      15.30449891      15.29645504      15.29320211      15.31666754      15.33640659      15.36561117      15.37071349      15.36681192      15.38423100      15.39716012      15.43049667      15.44653729      15.44317088      15.44169556      15.40199160      15.34480946      15.29706208      15.25510465      15.24398646
        15.23813265      15.24950821      15.26617552      15.26992322      15.25797429      15.27000613      15.27699062      15.27949790      15.29317535      15.30009088      15.31211806      15.33584814      15.36078113      15.35365086      15.31308772      15.27072264      15.24611818      15.25575090      15.26363462      15.28110465
        15.32768409      15.32118055      15.28282560      15.22280189      15.21123637      15.21342682      15.21329808      15.23130898      15.25057153      15.25800965      15.26430763      15.27497333      15.28250454      15.27847415      15.26191319      15.24099377      15.21426583      15.20334870      15.19936088      15.19800078
        15.20692000      15.21526872      15.22028197      15.23117001      15.24263509      15.26494576      15.32487791      15.37870012      15.41677149      15.40620450      15.39882401      15.39668728      15.40736448      15.43581964      15.48597328      15.51232713      15.55065725      15.56556427      15.55790819      15.55828051
        15.50000230      15.47631100      15.45706796      15.44099830      15.44048596      15.44244455      15.44514293      15.42563810      15.39372046      15.36867981      15.32361543      15.30912053      15.29683686      15.29912084      15.31194145      15.32391891      15.34610667      15.36118151      15.38123598      15.39530181
        15.37895203      15.36543602      15.36656763      15.35738779      15.37112296      15.38895620      15.40517407      15.42356144      15.42771600      15.44176255      15.45885144      15.47928714      15.49614425      15.49810601      15.49588491      15.48117660      15.43507812      15.38668339      15.34430552      15.31952276
        15.31471319      15.31457897      15.32081436      15.32583350      15.32466951      15.32884984      15.33153593      15.33807741      15.34637196      15.35005630      15.37610694      15.39608693      15.43143307      15.45182087      15.41748125      15.37975984      15.34516037      15.35388087      15.35291683      15.36038255
        15.36843702      15.37218604      15.36302964      15.30880523      15.27405981      15.28584090      15.27752976      15.29959144      15.31210705      15.31659332      15.32258942      15.32103536      15.32650531      15.32527531      15.31543112      15.29099824      15.25697856      15.23977072      15.23944236      15.24012546
        15.24655689      15.25837513      15.26324149      15.27028296      15.28689353      15.30986934      15.36447123      15.43476283      15.47755433      15.50243496      15.51377877      15.51326015      15.50959930      15.54477778      15.56622788      15.61178740      15.64258875      15.65830450      15.65088308      15.64809042
        15.60370037      15.54754900      15.52122388      15.50089390      15.49186016      15.49509268      15.49824674      15.49872434      15.46941350      15.43372558      15.39196899      15.35886788      15.35552677      15.35158012      15.36348800      15.37583833      15.39468985      15.40754338      15.42359958      15.43467922
        15.42909262      15.41587083      15.41137304      15.41090457      15.41443597      15.43081620      15.44278679      15.45737350      15.46799937      15.47923710      15.50067462      15.51477001      15.52734057      15.53515230      15.53454573      15.52890253      15.50539361      15.46200814      15.42640737      15.38897863
        15.37560181      15.37097333      15.37014414      15.37426234      15.37529639      15.37595853      15.38293193      15.38495553      15.38888464      15.40294750      15.42474617      15.45784932      15.49435828      15.52971884      15.52327967      15.49081020      15.45748523      15.44218215      15.44829770      15.44179338
        15.42434588      15.42248622      15.41550321      15.39397954      15.35671154      15.35900522      15.36524255      15.36917273      15.37697631      15.37337954      15.37269755      15.36475899      15.36409396      15.36208967      15.35494710      15.33969668      15.30674013      15.28000843      15.27647785      15.27890815
        15.28552668      15.29632826      15.30451332      15.30961153      15.32196908      15.35066192      15.40213480      15.47098996      15.52903926      15.58552206      15.61253909      15.63055079      15.62394312      15.63534518      15.65957606      15.68679008      15.70626671      15.72161722      15.72953635      15.71660094
        15.68656084      15.62175068      15.57777935      15.54688330      15.53787701      15.53714768      15.54107615      15.54525626      15.53383410      15.49575092      15.45358436      15.41907033      15.40610293      15.39860459      15.40946698      15.42049706      15.43271552      15.44735211      15.45038543      15.45647389
        15.46107577      15.45435942      15.44640460      15.45170152      15.45311669      15.46141896      15.47556153      15.48496845      15.50114135      15.51190612      15.52878257      15.54243017      15.55201218      15.56147973      15.56243531      15.55816019      15.54817163      15.52272552      15.48895275      15.45700742
        15.43108602      15.41564383      15.41411551      15.41746508      15.41662231      15.42092045      15.42879490      15.42723409      15.42978240      15.44716454      15.47368470      15.51494399      15.55282190      15.59358275      15.61989683      15.60526752      15.57638939      15.54929156      15.55340229      15.53759362
        15.48271668      15.47551424      15.47478346      15.46309273      15.44232743      15.42793109      15.45387468      15.44837976      15.43879816      15.42343201      15.41120897      15.40409125      15.39804967      15.39576146      15.38703192      15.37541230      15.35232852      15.32459508      15.31359361      15.31507168
        15.32054406      15.33073521      15.33837316      15.34562684      15.35590951      15.38924500      15.43722417      15.49685804      15.58385986      15.64671704      15.69552195      15.72576956      15.73278662      15.72001485      15.74073239      15.74554549      15.76173970      15.77213380      15.78125052      15.77946910
        15.75518718      15.69486549      15.63366739      15.59289843      15.57468244      15.57405174      15.57732322      15.58042795      15.57773656      15.55062410      15.51176381      15.47830661      15.45492892      15.44835885      15.45011811      15.45855713      15.46597700      15.47710516      15.47598104      15.47436093
        15.47917234      15.48035819      15.47936891      15.48321187      15.48548344      15.49236197      15.50288402      15.51323249      15.52899301      15.53973876      15.55145020      15.56371867      15.57255897      15.58045355      15.58236025      15.58114088      15.57325382      15.56196758      15.53760707      15.51063484
        15.48574760      15.46256489      15.45285814      15.45214155      15.45668407      15.46182167      15.46285728      15.46774163      15.47203727      15.48541725      15.52096745      15.56469678      15.61516415      15.66108731      15.70024368      15.70685181      15.69283226      15.66562369      15.65316032      15.65087029
        15.53274461      15.52835017      15.54030863      15.52938385      15.51751422      15.51323362      15.52381620      15.53003638      15.50622619      15.46854130      15.44737404      15.43783826      15.42608041      15.42651836      15.41985059      15.40833104      15.38819339      15.36318776      15.35197838      15.34675767
        15.35112391      15.36104624      15.36791672      15.37590655      15.38713415      15.41967900      15.46789046      15.53006941      15.60922081      15.68500575      15.76437565      15.80683933      15.82979975      15.81864843      15.80059576      15.79948821      15.80981016      15.81910701      15.82049639      15.82899760
        15.81554188      15.76855499      15.69599740      15.64250917      15.61025509      15.60530576      15.60525489      15.60927043      15.61341527      15.59910038      15.56364520      15.53381013      15.50741449      15.49665654      15.48909119      15.49172381      15.49738105      15.49798580      15.49639735      15.49038635
        15.49160311      15.49862216      15.50467988      15.50910380      15.51471924      15.52219268      15.52967789      15.53851160      15.54831185      15.56156920      15.57076020      15.58079493      15.58817979      15.59348709      15.59766268      15.59741401      15.59348825      15.58433871      15.57307749      15.55215433
        15.52843983      15.50895175      15.49305955      15.48748701      15.49246614      15.49474322      15.49805499      15.50438846      15.51182006      15.52850084      15.56888242      15.62037651      15.67696305      15.72871971      15.76390896      15.78376328      15.78383450      15.76908421      15.74557694      15.75284429
        15.58147652      15.58518650      15.58905424      15.59349503      15.58916606      15.59338657      15.58671702      15.59423664      15.57272143      15.52092135      15.47854659      15.46680585      15.45360831      15.44930942      15.44806899      15.44014174      15.42461897      15.39633472      15.38070566      15.37453867
        15.37730128      15.38696313      15.39422981      15.40041410      15.41528811      15.44467828      15.49792558      15.56116907      15.62315038      15.72317516      15.81425116      15.87349754      15.90834014      15.90351833      15.87149180      15.85510004      15.85048149      15.86345680      15.86618100      15.87321845
        15.86643082      15.83439475      15.76895655      15.69784862      15.65328421      15.63369649      15.63081857      15.63296377      15.64073115      15.64532831      15.62245579      15.58839862      15.56049863      15.53688950      15.52903372      15.52515027      15.52438004      15.52007655      15.51099152      15.50074379
        15.50481077      15.51452947      15.52414535      15.53273561      15.54209720      15.54989801      15.55540857      15.56175687      15.56812216      15.57864521      15.58693006      15.59347449      15.60094176      15.60513118      15.60949979      15.61012775      15.60903926      15.60402166      15.59723731      15.58500565
        15.56638975      15.54595935      15.53206558      15.52715730      15.52317113      15.52600376      15.53290434      15.53793374      15.54838747      15.57321963      15.61612255      15.67375283      15.73444069      15.78557591      15.81522786      15.84442215      15.85233491      15.84946692      15.83765689      15.83145078
        15.63532969      15.64152110      15.63545313      15.65213538      15.65409304      15.65625891      15.65634651      15.64265668      15.62343489      15.56620016      15.51258829      15.49070876      15.47843818      15.46926464      15.46756546      15.46296754      15.45561175      15.43175626      15.40161896      15.39129087
        15.39963176      15.40886179      15.41609000      15.42275688      15.43629220      15.47382434      15.52695843      15.57845236      15.64697815      15.73770778      15.84444535      15.92879057      15.98524889      15.99866371      15.96605827      15.93084150      15.89945471      15.90219599      15.91018767      15.91120052
        15.91548673      15.89217976      15.84518317      15.76351313      15.70122507      15.67092232      15.65678162      15.65806155      15.66573019      15.67582614      15.67819765      15.65480905      15.61891540      15.57779754      15.56675639      15.55837536      15.54872779      15.54205944      15.52458323      15.49146230
        15.51308719      15.52874028      15.54394182      15.55569349      15.56608722      15.57403349      15.57836068      15.58218816      15.58663291      15.59229044      15.59974841      15.60456246      15.61158758      15.61579882      15.61894083      15.62125202      15.62106471      15.62068725      15.61495483      15.60916288
        15.59919418      15.58233374      15.56624643      15.56273710      15.55875230      15.56191692      15.56549489      15.56991376      15.58524895      15.61297051      15.65915619      15.72247037      15.78524922      15.83302456      15.86390660      15.88836110      15.91173143      15.91458632      15.91871526      15.91209479
        15.69346537      15.69072882      15.69413052      15.70704974      15.71374058      15.71293306      15.71630717      15.69537445      15.67271117      15.60551305      15.53944352      15.51195927      15.49734211      15.48749167      15.48276383      15.47971275      15.47333020      15.46081169      15.42658411      15.39106944
        15.41750027      15.42759732      15.43513583      15.44182589      15.45698617      15.49678991      15.54553814      15.60134121      15.67504122      15.75377453      15.88128189      15.99186582      16.06394631      16.10224220      16.07540870      16.02276329      15.97726286      15.94564799      15.95158244      15.94830009
        15.95791296      15.94815875      15.91104953      15.84505109      15.75805562      15.71467048      15.68916168      15.68620839      15.69292112      15.70351811      15.71708276      15.71450400      15.68547041      15.63634821      15.60183285      15.59020814      15.58221498      15.56499788      15.53706542      15.38823864
        15.51419772      15.54811630      15.56594252      15.57742505      15.58625014      15.59302131      15.59811581      15.59891466      15.60196467      15.60530188      15.60961361      15.61499115      15.61888972      15.62430435      15.62746720      15.63105681      15.63276622      15.63280707      15.63172797      15.62894407
        15.62250370      15.61479406      15.60268266      15.59272339      15.59468205      15.59731758      15.59925332      15.60684791      15.62093028      15.64704279      15.69924007      15.76375566      15.83031878      15.87754418      15.90996742      15.93002579      15.96690967      15.98770585      15.98806147      15.99197200
        15.74022968      15.74103598      15.75080291      15.75461576      15.77401279      15.77257487      15.75904791      15.74038394      15.71410202      15.64671332      15.55818905      15.52925589      15.51199654      15.50211419      15.49655258      15.49286161      15.48688515      15.47846012      15.45857265      15.43871818
        15.44261276      15.44806366      15.45258437      15.45870858      15.47845620      15.51854754      15.56924845      15.62893857      15.70403968      15.78861319      15.92049478      16.04955198      16.13506697      16.19902616      16.19505815      16.13806274      16.06070843      16.00514360      15.99443715      15.99035174
        15.98940946      15.99255011      15.96729618      15.92224070      15.83669312      15.76607004      15.73102684      15.71963883      15.72301788      15.73469310      15.74832247      15.75288940      15.73816874      15.69770899      15.65093688      15.62960537      15.62357149      15.60946114      15.59092623      15.56721618
        15.57136587      15.58180516      15.59197432      15.59731487      15.60364894      15.60887135      15.61228156      15.61339494      15.61419767      15.61740136      15.61942395      15.62392432      15.62746668      15.63134626      15.63534135      15.63933618      15.64289522      15.64472041      15.64715068      15.64559581
        15.64321693      15.63746236      15.63486764      15.62756417      15.62764360      15.62873305      15.63397481      15.64308228      15.65383840      15.67959527      15.73408137      15.80752778      15.87575056      15.92437605      15.95714026      15.98735920      16.02440441      16.05723061      16.06029096      16.06469938
        15.78148154      15.79018412      15.79954335      15.81250070      15.83036954      15.83466373      15.80915550      15.77974577      15.73885344      15.68552917      15.59378943      15.54041211      15.52403018      15.51301067      15.50717934      15.50307234      15.49831110      15.49187884      15.47908295      15.46506105
        15.46557165      15.46693462      15.46888208      15.47724009      15.50022014      15.54465206      15.60148785      15.65656587      15.72902460      15.84354069      15.97277071      16.09684548      16.19578432      16.26521571      16.28921769      16.25648984      16.15484368      16.06629332      16.03841087      16.03477987
        16.02416186      16.02066931      16.00881165      15.97974871      15.91958109      15.83085433      15.78691117      15.75851792      15.75622509      15.76861126      15.77853422      15.79008639      15.78424641      15.75249599      15.71289398      15.67977841      15.66499357      15.65897297      15.64568872      15.63633180
        15.63129806      15.62048235      15.61860610      15.61866724      15.61977447      15.62141181      15.62343915      15.62515395      15.62551651      15.62734773      15.62915322      15.63142110      15.63635817      15.63891906      15.64332594      15.64648025      15.65121048      15.65653346      15.65973368      15.66087775
        15.66241007      15.65829433      15.65520551      15.65870508      15.65808828      15.66119921      15.66672398      15.67275147      15.68677833      15.71374272      15.77013965      15.85147418      15.92128200      15.97887654      16.01282540      16.05232342      16.08945152      16.12044172      16.13315076      16.13041923
        15.83212965      15.83899895      15.84846626      15.86973262      15.88012922      15.88785229      15.86887209      15.83082261      15.77152800      15.70850186      15.62954582      15.55410233      15.53073459      15.52142832      15.51508567      15.51100225      15.50674345      15.50236939      15.49507589      15.48435561
        15.48244393      15.48284175      15.48401717      15.49483815      15.52503725      15.57751820      15.63214547      15.68439735      15.76530259      15.87970104      16.00513559      16.14056269      16.24146182      16.30907480      16.35097332      16.32977185      16.25158321      16.12579164      16.08234521      16.07366611
        16.06255498      16.05198134      16.04064039      16.01627267      15.98759438      15.90801503      15.84664207      15.81128024      15.79442166      15.80319048      15.81097753      15.82770645      15.82677413      15.79875947      15.76179599      15.72689572      15.71183214      15.70165551      15.69251286      15.68391084
        15.67570316      15.65838809      15.64553866      15.64021508      15.63607378      15.63304353      15.63320132      15.63520599      15.63569667      15.63559811      15.63825653      15.64010846      15.64464755      15.64769704      15.65130661      15.65531320      15.65998922      15.66664090      15.67044472      15.67534925
        15.67725691      15.67809262      15.67654171      15.68217821      15.68714863      15.69316430      15.69590946      15.70393075      15.72155064      15.74695819      15.80032701      15.88974041      15.97247804      16.03477424      16.07675328      16.11122279      16.15451287      16.18722946      16.20278328      16.19855752
        15.89301499      15.89522427      15.90598040      15.91606995      15.92775040      15.93147711      15.92340177      15.88856535      15.82691693      15.73645988      15.65711193      15.57676863      15.53490673      15.52630005      15.52078929      15.51690337      15.51317484      15.50945889      15.50562399      15.49989896
        15.49583317      15.49657385      15.49959536      15.50847365      15.54650912      15.60745088      15.65637971      15.71639057      15.79915087      15.90510007      16.03709615      16.17106241      16.27088732      16.33207668      16.37742902      16.36800657      16.31004781      16.20031876      16.12604515      16.10843820
        16.09842252      16.08411178      16.07331136      16.05013684      16.02586536      15.97245214      15.90009152      15.86996197      15.83874143      15.83792853      15.84773145      15.85556902      15.86000897      15.83866110      15.80113015      15.76542245      15.74764553      15.74010330      15.72885742      15.72124037
        15.71220286      15.69086991      15.67160106      15.65894455      15.65233282      15.64766539      15.64311684      15.64438445      15.64511416      15.64448433      15.64606809      15.64898641      15.65234405      15.65695616      15.65929571      15.66491389      15.66973736      15.67538446      15.68189726      15.68710299
        15.68920921      15.69349189      15.69668381      15.70271673      15.71268355      15.71814199      15.72503783      15.73552499      15.75825589      15.78201658      15.82944107      15.92049730      16.01558137      16.08559977      16.13727122      16.17549166      16.21865360      16.24974462      16.27322013      16.27517025
        15.96449325      15.95763834      15.96576023      15.96474526      15.97273036      15.97491292      15.96788237      15.94150127      15.89061073      15.78951658      15.69366738      15.60484063      15.54005959      15.52933132      15.52399233      15.52078897      15.51754766      15.51471384      15.51260106      15.50988276
        15.50804804      15.50976872      15.51368178      15.52165764      15.55426164      15.61609522      15.67577548      15.73067225      15.81031608      15.93272021      16.07328054      16.19992647      16.29477654      16.35911290      16.40407944      16.40846299      16.35970778      16.26518657      16.17591756      16.14229852
        16.12921388      16.11634348      16.10247045      16.08734900      16.06346307      16.02759645      15.96128003      15.91883752      15.88993214      15.87261461      15.87956097      15.88095816      15.88389306      15.86635031      15.83107560      15.79784973      15.77194719      15.76746215      15.75922726      15.74891168
        15.74255224      15.72318065      15.69505820      15.67856760      15.66739612      15.66250900      15.65638176      15.65313798      15.65437949      15.65383850      15.65408406      15.65782319      15.66111018      15.66615945      15.66878652      15.67328959      15.67910482      15.68499483      15.69289586      15.69581742
        15.70007987      15.70540478      15.71306410      15.72373081      15.73521521      15.74089660      15.75175075      15.76736425      15.79231749      15.82382860      15.87252571      15.94032699      16.04385393      16.13515749      16.19744617      16.24457593      16.27640950      16.30742652      16.33123977      16.34586349
        16.04065360      16.03023120      16.01773961      16.02209207      16.01753222      16.01414221      16.00874284      15.99160671      15.95035919      15.85053928      15.73825431      15.64734819      15.55559652      15.53218226      15.52633820      15.52218101      15.51956812      15.51734226      15.51661179      15.51641423
        15.51668708      15.51960114      15.52378603      15.53757464      15.56391718      15.61405709      15.67796301      15.72780722      15.80668989      15.93821157      16.10114085      16.24300825      16.33304418      16.39309118      16.43376038      16.44695623      16.41416231      16.33362524      16.23477683      16.17827921