# File generated by Flopy version 3.5.0 on 02/28/2024 at 08:49:38.
BEGIN options
END options

BEGIN dimensions
  MAXBOUND  5
END dimensions

BEGIN period  1
  1 1120 -2.50000000E-03
  1 1160 -5.00000000E-03
  1 3120 -2.50000000E-02
  1 3180 -2.50000000E-05
  1 4170 -2.50000000E-04
END period  1

