# File generated by Flopy version 3.5.0 on 02/29/2024 at 16:00:13.
BEGIN options
END options

BEGIN dimensions
  MAXBOUND  5000
END dimensions

BEGIN period  1
  1 1 1.77539473E-08
  1 2 2.22212162E-08
  1 3 2.35770715E-08
  1 4 2.48247303E-08
  1 5 2.21687772E-08
  1 6 2.16726774E-08
  1 7 2.25147217E-08
  1 8 2.15317562E-08
  1 9 2.10381439E-08
  1 10 1.87503398E-08
  1 11 1.52585126E-08
  1 12 1.48113842E-08
  1 13 1.34384608E-08
  1 14 1.22465676E-08
  1 15 1.40819635E-08
  1 16 1.45960580E-08
  1 17 1.76182397E-08
  1 18 2.03075033E-08
  1 19 2.09172221E-08
  1 20 2.22695925E-08
  1 21 2.18619839E-08
  1 22 2.28166840E-08
  1 23 2.43897194E-08
  1 24 2.26723627E-08
  1 25 2.36320375E-08
  1 26 2.32163066E-08
  1 27 2.04153318E-08
  1 28 1.92436815E-08
  1 29 1.85564957E-08
  1 30 1.78676030E-08
  1 31 1.82970936E-08
  1 32 1.76936402E-08
  1 33 2.09034563E-08
  1 34 2.40573999E-08
  1 35 2.49546155E-08
  1 36 2.73221419E-08
  1 37 2.48362801E-08
  1 38 2.42150404E-08
  1 39 2.60365182E-08
  1 40 2.67095693E-08
  1 41 2.37870135E-08
  1 42 1.79081372E-08
  1 43 1.35308938E-08
  1 44 1.58360299E-08
  1 45 1.56789386E-08
  1 46 1.25386483E-08
  1 47 1.08106411E-08
  1 48 8.30323021E-09
  1 49 8.99432829E-09
  1 50 8.05725155E-09
  1 51 9.50546033E-09
  1 52 1.47077089E-08
  1 53 1.71016761E-08
  1 54 1.74080934E-08
  1 55 1.80666992E-08
  1 56 1.71431033E-08
  1 57 1.90816108E-08
  1 58 2.15239328E-08
  1 59 2.24328772E-08
  1 60 2.28605560E-08
  1 61 1.97175134E-08
  1 62 1.90235182E-08
  1 63 2.16673312E-08
  1 64 2.21519687E-08
  1 65 2.28814712E-08
  1 66 2.10729143E-08
  1 67 1.96062608E-08
  1 68 2.13286318E-08
  1 69 1.94355270E-08
  1 70 1.79406867E-08
  1 71 1.87350889E-08
  1 72 1.95003206E-08
  1 73 1.93165486E-08
  1 74 1.87507239E-08
  1 75 1.99092276E-08
  1 76 2.45518865E-08
  1 77 2.28244390E-08
  1 78 2.03732933E-08
  1 79 1.94421307E-08
  1 80 1.66613184E-08
  1 81 1.64417325E-08
  1 82 1.58214538E-08
  1 83 1.71247835E-08
  1 84 1.91476740E-08
  1 85 1.86055508E-08
  1 86 1.59151108E-08
  1 87 1.37484028E-08
  1 88 1.08938598E-08
  1 89 1.29645022E-08
  1 90 1.35237443E-08
  1 91 1.20621376E-08
  1 92 1.16810022E-08
  1 93 7.57885306E-09
  1 94 5.99090013E-09
  1 95 7.52852683E-09
  1 96 8.39065592E-09
  1 97 7.31326993E-09
  1 98 4.03354665E-09
  1 99 3.41530960E-09
  1 100 5.81307020E-09
  1 101 2.37105061E-08
  1 102 2.47228952E-08
  1 103 2.48327994E-08
  1 104 2.27447817E-08
  1 105 2.36017823E-08
  1 106 2.10040131E-08
  1 107 1.81278888E-08
  1 108 1.54106096E-08
  1 109 1.24111536E-08
  1 110 1.40102523E-08
  1 111 1.45096298E-08
  1 112 1.41107930E-08
  1 113 1.58447929E-08
  1 114 1.84929657E-08
  1 115 2.02400018E-08
  1 116 2.15620330E-08
  1 117 1.85684907E-08
  1 118 1.84523983E-08
  1 119 1.76075163E-08
  1 120 1.72160746E-08
  1 121 2.03799470E-08
  1 122 2.10375508E-08
  1 123 2.12617548E-08
  1 124 2.01866623E-08
  1 125 1.86695593E-08
  1 126 1.95472151E-08
  1 127 1.89013948E-08
  1 128 1.58808661E-08
  1 129 1.72694164E-08
  1 130 1.85660713E-08
  1 131 2.00440077E-08
  1 132 2.16812578E-08
  1 133 2.31228827E-08
  1 134 2.62769199E-08
  1 135 2.49617108E-08
  1 136 2.26939034E-08
  1 137 2.48368347E-08
  1 138 2.24985059E-08
  1 139 1.75526256E-08
  1 140 1.44813176E-08
  1 141 1.39480604E-08
  1 142 1.47063341E-08
  1 143 1.18094871E-08
  1 144 9.19673247E-09
  1 145 1.05426943E-08
  1 146 1.05031748E-08
  1 147 1.04325217E-08
  1 148 1.26074737E-08
  1 149 1.31295835E-08
  1 150 1.67340414E-08
  1 151 1.66057124E-08
  1 152 1.61516054E-08
  1 153 1.87319548E-08
  1 154 2.10487577E-08
  1 155 2.37241025E-08
  1 156 2.56708135E-08
  1 157 2.60834922E-08
  1 158 2.56082654E-08
  1 159 2.22380144E-08
  1 160 1.89422578E-08
  1 161 2.17104581E-08
  1 162 2.10023510E-08
  1 163 2.07814360E-08
  1 164 2.10488801E-08
  1 165 2.02761698E-08
  1 166 1.99175272E-08
  1 167 1.80518392E-08
  1 168 1.83641093E-08
  1 169 2.06965751E-08
  1 170 1.97959581E-08
  1 171 1.98115323E-08
  1 172 2.24870511E-08
  1 173 2.40247980E-08
  1 174 2.60098973E-08
  1 175 2.38393676E-08
  1 176 2.08884104E-08
  1 177 2.08377288E-08
  1 178 1.86833679E-08
  1 179 1.72012297E-08
  1 180 1.70887806E-08
  1 181 1.71957070E-08
  1 182 1.95054078E-08
  1 183 1.67657974E-08
  1 184 1.30459853E-08
  1 185 1.23290735E-08
  1 186 1.26759917E-08
  1 187 1.41593211E-08
  1 188 1.44033805E-08
  1 189 1.12324203E-08
  1 190 9.45935678E-09
  1 191 6.90512353E-09
  1 192 5.65727796E-09
  1 193 8.39613743E-09
  1 194 6.21890302E-09
  1 195 4.29013544E-09
  1 196 2.45562894E-09
  1 197 2.74334935E-09
  1 198 3.61820458E-09
  1 199 1.64988564E-09
  1 200 5.77266424E-10
  1 201 2.46224799E-08
  1 202 2.12320921E-08
  1 203 2.18785242E-08
  1 204 2.03504102E-08
  1 205 1.73281774E-08
  1 206 1.69288342E-08
  1 207 1.59310342E-08
  1 208 1.63933427E-08
  1 209 1.63647051E-08
  1 210 1.38971705E-08
  1 211 1.49970661E-08
  1 212 1.60554473E-08
  1 213 1.63907916E-08
  1 214 1.72157162E-08
  1 215 1.69665596E-08
  1 216 1.72143066E-08
  1 217 1.71070742E-08
  1 218 1.64147251E-08
  1 219 2.02367740E-08
  1 220 2.00892777E-08
  1 221 1.53012804E-08
  1 222 1.48083499E-08
  1 223 1.46078845E-08
  1 224 1.50391151E-08
  1 225 1.30793933E-08
  1 226 1.37770328E-08
  1 227 1.82376453E-08
  1 228 2.01055838E-08
  1 229 1.97020556E-08
  1 230 2.31404047E-08
  1 231 2.46633464E-08
  1 232 2.46186325E-08
  1 233 2.34905759E-08
  1 234 2.00272470E-08
  1 235 1.97476809E-08
  1 236 1.65884484E-08
  1 237 1.49353864E-08
  1 238 1.56591712E-08
  1 239 1.44845824E-08
  1 240 1.20902059E-08
  1 241 1.00894373E-08
  1 242 9.36975950E-09
  1 243 1.23678706E-08
  1 244 1.26200354E-08
  1 245 1.22926528E-08
  1 246 1.62818663E-08
  1 247 1.83050023E-08
  1 248 1.94873615E-08
  1 249 1.95463693E-08
  1 250 2.01078660E-08
  1 251 2.46330527E-08
  1 252 2.63540688E-08
  1 253 2.61136279E-08
  1 254 2.64789298E-08
  1 255 2.41582411E-08
  1 256 2.29532986E-08
  1 257 2.11380844E-08
  1 258 1.95041895E-08
  1 259 2.07284653E-08
  1 260 2.14770598E-08
  1 261 2.10964107E-08
  1 262 2.17141666E-08
  1 263 1.78414149E-08
  1 264 1.66193468E-08
  1 265 1.82264411E-08
  1 266 1.98137068E-08
  1 267 2.24894833E-08
  1 268 2.20335423E-08
  1 269 2.40412214E-08
  1 270 2.65857989E-08
  1 271 2.60167920E-08
  1 272 2.41566418E-08
  1 273 2.25528657E-08
  1 274 1.95641807E-08
  1 275 2.08007542E-08
  1 276 1.96987154E-08
  1 277 1.75778325E-08
  1 278 1.87649111E-08
  1 279 2.02473282E-08
  1 280 2.21567633E-08
  1 281 1.80286060E-08
  1 282 1.29753776E-08
  1 283 1.32469001E-08
  1 284 1.37686677E-08
  1 285 1.25581632E-08
  1 286 1.13159442E-08
  1 287 7.16550602E-09
  1 288 5.93934600E-09
  1 289 6.92073384E-09
  1 290 7.50321486E-09
  1 291 8.45322947E-09
  1 292 6.08593507E-09
  1 293 4.16415757E-09
  1 294 3.79823235E-09
  1 295 1.41226718E-09
  1 296 2.67111606E-09
  1 297 3.61792806E-09
  1 298 2.91815135E-09
  1 299 3.66604779E-09
  1 300 2.24851706E-09
  1 301 2.22718250E-08
  1 302 2.23907631E-08
  1 303 1.82466133E-08
  1 304 1.81142264E-08
  1 305 1.74399757E-08
  1 306 1.59778495E-08
  1 307 1.51896059E-08
  1 308 1.32201488E-08
  1 309 1.41574442E-08
  1 310 1.37726966E-08
  1 311 1.36234184E-08
  1 312 1.62654544E-08
  1 313 1.63818715E-08
  1 314 1.32021036E-08
  1 315 1.37147673E-08
  1 316 1.50626605E-08
  1 317 1.73950153E-08
  1 318 1.56854831E-08
  1 319 1.16701749E-08
  1 320 1.26519656E-08
  1 321 1.25623305E-08
  1 322 1.15665167E-08
  1 323 1.32689914E-08
  1 324 1.54740755E-08
  1 325 1.91457446E-08
  1 326 2.03217119E-08
  1 327 2.02689225E-08
  1 328 2.30469188E-08
  1 329 2.31457623E-08
  1 330 2.18131490E-08
  1 331 2.09826077E-08
  1 332 1.76065349E-08
  1 333 1.58242337E-08
  1 334 1.67909589E-08
  1 335 1.67417931E-08
  1 336 1.78497801E-08
  1 337 1.40124357E-08
  1 338 1.16250881E-08
  1 339 1.19644075E-08
  1 340 1.20932277E-08
  1 341 1.37532255E-08
  1 342 1.43741283E-08
  1 343 1.54065618E-08
  1 344 1.95508421E-08
  1 345 2.12888660E-08
  1 346 1.96755388E-08
  1 347 2.17140937E-08
  1 348 2.40248908E-08
  1 349 2.92500331E-08
  1 350 2.97508712E-08
  1 351 2.61584654E-08
  1 352 2.34788140E-08
  1 353 2.07948086E-08
  1 354 2.13587201E-08
  1 355 2.19395401E-08
  1 356 1.86095959E-08
  1 357 1.81347163E-08
  1 358 2.07863564E-08
  1 359 2.00491960E-08
  1 360 1.83341152E-08
  1 361 1.57645282E-08
  1 362 1.76858392E-08
  1 363 2.13454713E-08
  1 364 2.17416379E-08
  1 365 2.38609741E-08
  1 366 2.51871714E-08
  1 367 2.51474523E-08
  1 368 2.75818394E-08
  1 369 2.65300100E-08
  1 370 2.44748273E-08
  1 371 2.35445937E-08
  1 372 2.34535452E-08
  1 373 2.45447565E-08
  1 374 2.24419897E-08
  1 375 1.85256650E-08
  1 376 1.95728424E-08
  1 377 2.05694176E-08
  1 378 1.94093366E-08
  1 379 1.67455352E-08
  1 380 1.22613211E-08
  1 381 1.47321082E-08
  1 382 1.55302461E-08
  1 383 1.24721735E-08
  1 384 8.67171394E-09
  1 385 6.34241862E-09
  1 386 7.20788747E-09
  1 387 8.78016801E-09
  1 388 6.99008702E-09
  1 389 6.52477524E-09
  1 390 6.01969468E-09
  1 391 3.51776688E-09
  1 392 4.12272532E-09
  1 393 2.88432295E-09
  1 394 4.42499324E-09
  1 395 5.36063703E-09
  1 396 3.76205996E-09
  1 397 3.46408838E-09
  1 398 2.21281855E-09
  1 399 4.53486693E-10
  1 400 2.01275727E-09
  1 401 1.76733975E-08
  1 402 1.64321482E-08
  1 403 1.57668470E-08
  1 404 1.35109992E-08
  1 405 1.46798312E-08
  1 406 1.53272518E-08
  1 407 1.54657445E-08
  1 408 1.65510330E-08
  1 409 1.58159406E-08
  1 410 1.68870352E-08
  1 411 1.32479377E-08
  1 412 9.63356724E-09
  1 413 1.12002277E-08
  1 414 1.29617776E-08
  1 415 1.22340170E-08
  1 416 1.22851570E-08
  1 417 1.11113549E-08
  1 418 1.21092935E-08
  1 419 1.34961636E-08
  1 420 1.37063122E-08
  1 421 1.65276567E-08
  1 422 1.60918236E-08
  1 423 1.83650125E-08
  1 424 2.06961237E-08
  1 425 2.03999314E-08
  1 426 2.14618642E-08
  1 427 2.30373176E-08
  1 428 2.18769394E-08
  1 429 2.05645545E-08
  1 430 1.75536264E-08
  1 431 1.65303810E-08
  1 432 1.78565498E-08
  1 433 1.58583730E-08
  1 434 1.46376599E-08
  1 435 1.22839008E-08
  1 436 1.15242715E-08
  1 437 1.44556353E-08
  1 438 1.48045711E-08
  1 439 1.57220897E-08
  1 440 1.86875321E-08
  1 441 1.96084995E-08
  1 442 2.12665618E-08
  1 443 2.11689259E-08
  1 444 2.08759219E-08
  1 445 2.35432917E-08
  1 446 2.69151379E-08
  1 447 2.95813853E-08
  1 448 2.76530157E-08
  1 449 1.88012797E-08
  1 450 1.66629205E-08
  1 451 2.00934762E-08
  1 452 2.23602098E-08
  1 453 2.18819874E-08
  1 454 1.80797664E-08
  1 455 1.96004749E-08
  1 456 2.14314598E-08
  1 457 1.91125682E-08
  1 458 1.69469418E-08
  1 459 1.79413159E-08
  1 460 1.94167632E-08
  1 461 2.30578041E-08
  1 462 2.36256748E-08
  1 463 2.52608739E-08
  1 464 2.70027255E-08
  1 465 2.62334865E-08
  1 466 2.86148208E-08
  1 467 2.75915445E-08
  1 468 2.50917784E-08
  1 469 2.55835673E-08
  1 470 2.73833863E-08
  1 471 2.76219040E-08
  1 472 2.47557911E-08
  1 473 1.95945799E-08
  1 474 1.98695940E-08
  1 475 1.99653525E-08
  1 476 1.71069764E-08
  1 477 1.49025552E-08
  1 478 1.24913948E-08
  1 479 1.37193791E-08
  1 480 1.36585590E-08
  1 481 8.63130788E-09
  1 482 7.58370121E-09
  1 483 9.00917774E-09
  1 484 9.58141043E-09
  1 485 8.55207745E-09
  1 486 5.59635215E-09
  1 487 5.92741805E-09
  1 488 6.20709604E-09
  1 489 4.76454690E-09
  1 490 6.12138766E-09
  1 491 7.09404783E-09
  1 492 5.74469246E-09
  1 493 7.07655112E-09
  1 494 5.11535225E-09
  1 495 3.77418123E-09
  1 496 1.94951861E-09
  1 497 3.32659667E-10
  1 498 1.83401248E-09
  1 499 1.17636601E-09
  1 500 3.08557269E-10
  1 501 1.70778594E-08
  1 502 1.56727986E-08
  1 503 1.73774484E-08
  1 504 1.72715858E-08
  1 505 1.60435735E-08
  1 506 1.66394128E-08
  1 507 1.36038251E-08
  1 508 1.18711116E-08
  1 509 1.24919868E-08
  1 510 1.22318748E-08
  1 511 1.34841239E-08
  1 512 1.36204695E-08
  1 513 1.28161832E-08
  1 514 1.31793506E-08
  1 515 1.16916000E-08
  1 516 1.25623572E-08
  1 517 1.47345073E-08
  1 518 1.41221245E-08
  1 519 1.49146679E-08
  1 520 1.68631453E-08
  1 521 1.88258376E-08
  1 522 2.20885090E-08
  1 523 2.03959281E-08
  1 524 2.08618469E-08
  1 525 2.19844508E-08
  1 526 1.99159893E-08
  1 527 1.82242287E-08
  1 528 1.70359488E-08
  1 529 1.73172287E-08
  1 530 1.76145750E-08
  1 531 1.50480997E-08
  1 532 1.37442058E-08
  1 533 1.58660006E-08
  1 534 1.46959194E-08
  1 535 1.57917789E-08
  1 536 1.53078883E-08
  1 537 1.61197040E-08
  1 538 1.83339966E-08
  1 539 1.79227174E-08
  1 540 1.96382676E-08
  1 541 2.22413943E-08
  1 542 2.31045720E-08
  1 543 2.55952036E-08
  1 544 2.82810273E-08
  1 545 2.62879823E-08
  1 546 2.06941176E-08
  1 547 1.38380293E-08
  1 548 1.74265452E-08
  1 549 2.43194719E-08
  1 550 2.35497389E-08
  1 551 2.12508252E-08
  1 552 2.00759284E-08
  1 553 1.98825880E-08
  1 554 1.93149316E-08
  1 555 1.61115176E-08
  1 556 1.65765835E-08
  1 557 1.89448044E-08
  1 558 2.13463117E-08
  1 559 2.61815358E-08
  1 560 2.84570097E-08
  1 561 2.84598491E-08
  1 562 3.01547262E-08
  1 563 2.98198197E-08
  1 564 2.92880664E-08
  1 565 2.78791058E-08
  1 566 2.40917013E-08
  1 567 2.56290120E-08
  1 568 2.63645017E-08
  1 569 2.56977894E-08
  1 570 2.20243444E-08
  1 571 1.77944370E-08
  1 572 1.84178552E-08
  1 573 1.95589680E-08
  1 574 1.61840139E-08
  1 575 1.45764648E-08
  1 576 1.36840000E-08
  1 577 1.11070386E-08
  1 578 9.93862030E-09
  1 579 7.19442551E-09
  1 580 9.25421555E-09
  1 581 1.00259539E-08
  1 582 8.47177231E-09
  1 583 8.10532663E-09
  1 584 7.19450407E-09
  1 585 7.07298156E-09
  1 586 8.26382956E-09
  1 587 6.86887800E-09
  1 588 6.83397885E-09
  1 589 7.95031553E-09
  1 590 7.19324055E-09
  1 591 8.38098814E-09
  1 592 7.24530552E-09
  1 593 6.13476005E-09
  1 594 5.84341431E-09
  1 595 2.88302515E-09
  1 596 1.68240066E-09
  1 597 6.18892554E-10
  1 598 1.22222437E-09
  1 599 5.69948156E-10
  1 600 1.68310615E-09
  1 601 2.07411257E-08
  1 602 2.19684590E-08
  1 603 1.91257987E-08
  1 604 1.57029281E-08
  1 605 1.17257555E-08
  1 606 1.09991669E-08
  1 607 1.52751661E-08
  1 608 1.38230060E-08
  1 609 1.29933291E-08
  1 610 1.30528334E-08
  1 611 1.30339129E-08
  1 612 1.30129403E-08
  1 613 1.27081600E-08
  1 614 1.33727381E-08
  1 615 1.51085932E-08
  1 616 1.39194308E-08
  1 617 1.54701691E-08
  1 618 1.91708516E-08
  1 619 1.91067890E-08
  1 620 2.01225419E-08
  1 621 1.91977831E-08
  1 622 1.90117949E-08
  1 623 1.95598812E-08
  1 624 1.69790407E-08
  1 625 1.61484861E-08
  1 626 1.72315576E-08
  1 627 1.65008601E-08
  1 628 1.56550443E-08
  1 629 1.38750848E-08
  1 630 1.59788574E-08
  1 631 1.98063331E-08
  1 632 1.81805978E-08
  1 633 1.70395650E-08
  1 634 1.86535356E-08
  1 635 1.73125637E-08
  1 636 1.68234995E-08
  1 637 1.66247746E-08
  1 638 1.88094667E-08
  1 639 2.14839269E-08
  1 640 2.10671875E-08
  1 641 2.45412763E-08
  1 642 2.55275800E-08
  1 643 2.15305966E-08
  1 644 1.86079763E-08
  1 645 2.00219101E-08
  1 646 2.30512660E-08
  1 647 2.54616706E-08
  1 648 2.13437143E-08
  1 649 1.87673407E-08
  1 650 1.79105056E-08
  1 651 1.62087143E-08
  1 652 1.75531746E-08
  1 653 1.76298883E-08
  1 654 2.06695012E-08
  1 655 2.48015101E-08
  1 656 2.69727595E-08
  1 657 2.86454740E-08
  1 658 2.89565186E-08
  1 659 2.63866672E-08
  1 660 2.70950141E-08
  1 661 2.69514098E-08
  1 662 2.62565818E-08
  1 663 2.64202979E-08
  1 664 2.50104830E-08
  1 665 2.66784675E-08
  1 666 2.66285994E-08
  1 667 2.27749059E-08
  1 668 1.95911199E-08
  1 669 1.56841165E-08
  1 670 1.42160839E-08
  1 671 1.47393384E-08
  1 672 1.29469830E-08
  1 673 1.28405159E-08
  1 674 1.19974909E-08
  1 675 1.00328098E-08
  1 676 1.06543785E-08
  1 677 1.06571657E-08
  1 678 9.56673422E-09
  1 679 9.76950574E-09
  1 680 7.67646227E-09
  1 681 8.89264622E-09
  1 682 9.29863083E-09
  1 683 9.33366668E-09
  1 684 1.10547194E-08
  1 685 9.88031674E-09
  1 686 1.05213012E-08
  1 687 1.22444083E-08
  1 688 1.01921557E-08
  1 689 6.73705283E-09
  1 690 5.94905411E-09
  1 691 4.99953049E-09
  1 692 5.22742644E-09
  1 693 1.20589833E-09
  1 694 5.20072402E-10
  1 695 3.03755273E-09
  1 696 3.95465327E-09
  1 697 7.31131494E-09
  1 698 8.94509710E-09
  1 699 8.86317878E-09
  1 700 1.01435112E-08
  1 701 1.57938856E-08
  1 702 1.16150974E-08
  1 703 1.21757124E-08
  1 704 1.48580483E-08
  1 705 1.81831346E-08
  1 706 1.68910678E-08
  1 707 1.38611367E-08
  1 708 1.36291624E-08
  1 709 1.16520735E-08
  1 710 1.21022114E-08
  1 711 1.19177222E-08
  1 712 1.19485726E-08
  1 713 1.47142592E-08
  1 714 1.55592607E-08
  1 715 1.65453798E-08
  1 716 1.79490658E-08
  1 717 1.64760667E-08
  1 718 1.57142148E-08
  1 719 1.74507916E-08
  1 720 1.65419194E-08
  1 721 1.68275884E-08
  1 722 1.50358825E-08
  1 723 1.75679699E-08
  1 724 2.08924259E-08
  1 725 1.87130478E-08
  1 726 1.74789125E-08
  1 727 1.83602949E-08
  1 728 1.97135540E-08
  1 729 2.00593600E-08
  1 730 1.75277963E-08
  1 731 1.53100248E-08
  1 732 1.62188828E-08
  1 733 1.43179458E-08
  1 734 1.59302581E-08
  1 735 1.88248305E-08
  1 736 2.10751260E-08
  1 737 2.43680681E-08
  1 738 2.47085553E-08
  1 739 2.38631370E-08
  1 740 2.14324977E-08
  1 741 1.73004211E-08
  1 742 1.85207009E-08
  1 743 2.09058141E-08
  1 744 2.06167185E-08
  1 745 2.07606527E-08
  1 746 1.88753099E-08
  1 747 1.72262662E-08
  1 748 1.76339721E-08
  1 749 1.74998274E-08
  1 750 1.94977469E-08
  1 751 2.11474310E-08
  1 752 2.22066973E-08
  1 753 2.65294369E-08
  1 754 2.66303639E-08
  1 755 2.72988790E-08
  1 756 2.80841837E-08
  1 757 2.68408194E-08
  1 758 2.60729528E-08
  1 759 2.51942181E-08
  1 760 2.36447844E-08
  1 761 2.40312417E-08
  1 762 2.28854315E-08
  1 763 2.12603451E-08
  1 764 2.12305895E-08
  1 765 1.84930335E-08
  1 766 1.83688716E-08
  1 767 1.47128641E-08
  1 768 1.19350867E-08
  1 769 1.34766072E-08
  1 770 1.32776444E-08
  1 771 1.12426881E-08
  1 772 1.07410748E-08
  1 773 1.08225511E-08
  1 774 1.18685320E-08
  1 775 1.12676330E-08
  1 776 1.01226693E-08
  1 777 1.18975827E-08
  1 778 9.94044826E-09
  1 779 9.90154422E-09
  1 780 1.17106580E-08
  1 781 1.05386071E-08
  1 782 1.05933501E-08
  1 783 1.20646303E-08
  1 784 1.41582406E-08
  1 785 1.48086546E-08
  1 786 9.36664713E-09
  1 787 6.16732405E-09
  1 788 6.99661889E-09
  1 789 6.43500532E-09
  1 790 4.15458934E-09
  1 791 6.16847357E-10
  1 792 4.04087936E-10
  1 793 6.79423344E-09
  1 794 1.02212496E-08
  1 795 1.18443654E-08
  1 796 1.34705879E-08
  1 797 1.30391557E-08
  1 798 1.50057202E-08
  1 799 1.39840219E-08
  1 800 1.30227023E-08
  1 801 1.28089355E-08
  1 802 1.61482457E-08
  1 803 1.85318270E-08
  1 804 1.71078900E-08
  1 805 1.28474033E-08
  1 806 1.32870691E-08
  1 807 1.27470253E-08
  1 808 1.33215227E-08
  1 809 1.39405208E-08
  1 810 1.36867661E-08
  1 811 1.57682421E-08
  1 812 1.60293718E-08
  1 813 1.37816135E-08
  1 814 1.37358439E-08
  1 815 1.31059088E-08
  1 816 1.46521457E-08
  1 817 1.74908613E-08
  1 818 1.65266441E-08
  1 819 1.63299981E-08
  1 820 1.83216338E-08
  1 821 2.10888154E-08
  1 822 2.34405634E-08
  1 823 2.01282578E-08
  1 824 1.87190602E-08
  1 825 2.03581409E-08
  1 826 1.92423888E-08
  1 827 1.95303253E-08
  1 828 1.77964940E-08
  1 829 1.56784639E-08
  1 830 1.57756475E-08
  1 831 1.68973300E-08
  1 832 1.79800642E-08
  1 833 2.01656654E-08
  1 834 2.09656213E-08
  1 835 2.38337444E-08
  1 836 2.13941065E-08
  1 837 1.55293217E-08
  1 838 1.54828775E-08
  1 839 1.62710791E-08
  1 840 1.90054306E-08
  1 841 1.99950292E-08
  1 842 1.89906460E-08
  1 843 1.81342309E-08
  1 844 1.71687872E-08
  1 845 1.64019091E-08
  1 846 1.94060686E-08
  1 847 2.01479680E-08
  1 848 2.09927838E-08
  1 849 2.22829077E-08
  1 850 2.18374022E-08
  1 851 2.46807143E-08
  1 852 2.55495797E-08
  1 853 2.56838627E-08
  1 854 2.75691477E-08
  1 855 2.63054813E-08
  1 856 2.40224423E-08
  1 857 2.34991465E-08
  1 858 2.40093118E-08
  1 859 2.52508942E-08
  1 860 2.10228268E-08
  1 861 1.65649192E-08
  1 862 1.77388549E-08
  1 863 1.72995586E-08
  1 864 1.39942009E-08
  1 865 1.14445376E-08
  1 866 9.97804834E-09
  1 867 1.29845851E-08
  1 868 1.25502525E-08
  1 869 1.13000702E-08
  1 870 1.28063335E-08
  1 871 1.21716971E-08
  1 872 1.22701832E-08
  1 873 1.26665762E-08
  1 874 1.25617053E-08
  1 875 1.23801737E-08
  1 876 1.18114054E-08
  1 877 1.18338729E-08
  1 878 1.47573590E-08
  1 879 1.19585381E-08
  1 880 1.14570163E-08
  1 881 1.40564320E-08
  1 882 1.40624032E-08
  1 883 1.15620007E-08
  1 884 6.02837668E-09
  1 885 4.97876754E-09
  1 886 7.50655559E-09
  1 887 6.72660098E-09
  1 888 4.19624652E-09
  1 889 4.89050127E-09
  1 890 8.34678733E-09
  1 891 1.58917286E-08
  1 892 1.75735986E-08
  1 893 1.56437665E-08
  1 894 1.65217100E-08
  1 895 1.64159366E-08
  1 896 1.65893246E-08
  1 897 1.57538162E-08
  1 898 1.39041390E-08
  1 899 1.41234319E-08
  1 900 1.26354329E-08
  1 901 1.96838539E-08
  1 902 1.60399572E-08
  1 903 1.29491439E-08
  1 904 1.44923498E-08
  1 905 1.58468392E-08
  1 906 1.42628712E-08
  1 907 1.57209825E-08
  1 908 1.42943064E-08
  1 909 1.48006747E-08
  1 910 1.48108561E-08
  1 911 1.23171733E-08
  1 912 1.27453949E-08
  1 913 1.45117542E-08
  1 914 1.70999917E-08
  1 915 1.90359771E-08
  1 916 1.89545989E-08
  1 917 2.00354385E-08
  1 918 2.28375998E-08
  1 919 2.18222326E-08
  1 920 2.24022840E-08
  1 921 1.97631715E-08
  1 922 1.67072944E-08
  1 923 1.77565303E-08
  1 924 1.84063641E-08
  1 925 1.90754161E-08
  1 926 1.82681574E-08
  1 927 1.72180535E-08
  1 928 1.95067420E-08
  1 929 1.93673557E-08
  1 930 1.72031420E-08
  1 931 1.82523479E-08
  1 932 1.82525831E-08
  1 933 1.67509307E-08
  1 934 1.29886138E-08
  1 935 1.01765986E-08
  1 936 1.47921980E-08
  1 937 1.89727304E-08
  1 938 1.89203949E-08
  1 939 1.89151384E-08
  1 940 1.58969082E-08
  1 941 1.49573819E-08
  1 942 1.48063574E-08
  1 943 1.67177314E-08
  1 944 2.13270426E-08
  1 945 2.28711144E-08
  1 946 2.24101960E-08
  1 947 2.44961389E-08
  1 948 2.56150613E-08
  1 949 2.66666561E-08
  1 950 2.78394177E-08
  1 951 2.61976609E-08
  1 952 2.69627488E-08
  1 953 2.29919948E-08
  1 954 2.03853782E-08
  1 955 2.27235003E-08
  1 956 2.47271159E-08
  1 957 2.29018462E-08
  1 958 1.79421657E-08
  1 959 1.55233570E-08
  1 960 1.81380154E-08
  1 961 1.65104107E-08
  1 962 1.12422537E-08
  1 963 1.10025213E-08
  1 964 1.03871305E-08
  1 965 1.13895116E-08
  1 966 1.18704562E-08
  1 967 1.16601965E-08
  1 968 1.26097831E-08
  1 969 1.20485586E-08
  1 970 1.32873961E-08
  1 971 1.53978057E-08
  1 972 1.27558866E-08
  1 973 1.19524957E-08
  1 974 1.36158238E-08
  1 975 1.44144519E-08
  1 976 1.50734626E-08
  1 977 1.31888799E-08
  1 978 1.23072462E-08
  1 979 1.47234545E-08
  1 980 1.33026842E-08
  1 981 1.01893372E-08
  1 982 6.79551200E-09
  1 983 5.39390215E-09
  1 984 8.68661967E-09
  1 985 7.85167220E-09
  1 986 8.59384429E-09
  1 987 1.34998388E-08
  1 988 1.85184367E-08
  1 989 2.10752907E-08
  1 990 2.05178324E-08
  1 991 1.73723032E-08
  1 992 1.81301590E-08
  1 993 1.85311667E-08
  1 994 1.81942513E-08
  1 995 1.80528773E-08
  1 996 1.47913922E-08
  1 997 1.58816600E-08
  1 998 1.53650956E-08
  1 999 1.23661980E-08
  1 1000 9.70577356E-09
  1 1001 1.56974708E-08
  1 1002 1.80386089E-08
  1 1003 1.88310077E-08
  1 1004 1.58204959E-08
  1 1005 1.59624851E-08
  1 1006 1.63637460E-08
  1 1007 1.62523807E-08
  1 1008 1.69167487E-08
  1 1009 1.49319501E-08
  1 1010 1.53326411E-08
  1 1011 1.65422216E-08
  1 1012 1.60744534E-08
  1 1013 1.83342582E-08
  1 1014 1.88263067E-08
  1 1015 1.92671674E-08
  1 1016 2.01449127E-08
  1 1017 2.08303527E-08
  1 1018 2.23227627E-08
  1 1019 2.22213387E-08
  1 1020 1.85986073E-08
  1 1021 1.96256152E-08
  1 1022 1.94268135E-08
  1 1023 1.68587954E-08
  1 1024 1.63671504E-08
  1 1025 1.53272925E-08
  1 1026 1.62987130E-08
  1 1027 1.43056371E-08
  1 1028 1.34698971E-08
  1 1029 1.57508525E-08
  1 1030 1.51849776E-08
  1 1031 1.12105487E-08
  1 1032 1.10700096E-08
  1 1033 1.22946852E-08
  1 1034 1.62952539E-08
  1 1035 1.82335699E-08
  1 1036 1.59584511E-08
  1 1037 1.65037433E-08
  1 1038 1.61178196E-08
  1 1039 1.69602665E-08
  1 1040 1.91742403E-08
  1 1041 2.11768281E-08
  1 1042 2.42672262E-08
  1 1043 2.45218538E-08
  1 1044 2.28517476E-08
  1 1045 2.59285383E-08
  1 1046 2.75410023E-08
  1 1047 2.75294449E-08
  1 1048 2.91220310E-08
  1 1049 2.88049706E-08
  1 1050 2.67543727E-08
  1 1051 2.32765545E-08
  1 1052 2.15893625E-08
  1 1053 2.47246718E-08
  1 1054 2.24304226E-08
  1 1055 1.83131030E-08
  1 1056 1.70586078E-08
  1 1057 1.58069192E-08
  1 1058 1.59611887E-08
  1 1059 1.37778000E-08
  1 1060 1.06911801E-08
  1 1061 9.88095639E-09
  1 1062 9.70937775E-09
  1 1063 9.61134553E-09
  1 1064 1.13706887E-08
  1 1065 9.84768024E-09
  1 1066 1.23334179E-08
  1 1067 1.54815150E-08
  1 1068 1.69898746E-08
  1 1069 1.78349911E-08
  1 1070 1.46170532E-08
  1 1071 1.39844928E-08
  1 1072 1.53479225E-08
  1 1073 1.46279743E-08
  1 1074 1.31222014E-08
  1 1075 1.23370735E-08
  1 1076 1.14006607E-08
  1 1077 1.40839713E-08
  1 1078 1.34326558E-08
  1 1079 1.19238831E-08
  1 1080 1.12475417E-08
  1 1081 1.02154895E-08
  1 1082 1.32209159E-08
  1 1083 1.53602067E-08
  1 1084 1.66507991E-08
  1 1085 2.01983337E-08
  1 1086 2.10576194E-08
  1 1087 2.01670838E-08
  1 1088 1.89212057E-08
  1 1089 1.69235449E-08
  1 1090 1.91967094E-08
  1 1091 2.11683334E-08
  1 1092 1.96465354E-08
  1 1093 1.80326496E-08
  1 1094 1.58322425E-08
  1 1095 1.49247671E-08
  1 1096 1.33082546E-08
  1 1097 7.75225919E-09
  1 1098 8.08876810E-09
  1 1099 9.74271497E-09
  1 1100 1.12618334E-08
  1 1101 2.24193319E-08
  1 1102 1.83545378E-08
  1 1103 1.70458671E-08
  1 1104 1.83188358E-08
  1 1105 1.59399832E-08
  1 1106 1.62136868E-08
  1 1107 1.56727666E-08
  1 1108 1.60058860E-08
  1 1109 1.66721420E-08
  1 1110 1.67714579E-08
  1 1111 2.00940188E-08
  1 1112 2.02523773E-08
  1 1113 1.75952680E-08
  1 1114 1.84899052E-08
  1 1115 1.97597513E-08
  1 1116 1.98744532E-08
  1 1117 1.98684366E-08
  1 1118 1.72475214E-08
  1 1119 1.69710612E-08
  1 1120 1.70079831E-08
  1 1121 1.62014298E-08
  1 1122 1.68625721E-08
  1 1123 1.46238677E-08
  1 1124 1.24634964E-08
  1 1125 1.25821979E-08
  1 1126 1.10349628E-08
  1 1127 1.17325777E-08
  1 1128 1.00503204E-08
  1 1129 8.58446186E-09
  1 1130 1.23238908E-08
  1 1131 1.63702136E-08
  1 1132 1.77353762E-08
  1 1133 1.72830982E-08
  1 1134 1.61494107E-08
  1 1135 1.85823968E-08
  1 1136 2.06739762E-08
  1 1137 1.97167466E-08
  1 1138 2.29082841E-08
  1 1139 2.43049019E-08
  1 1140 2.71583346E-08
  1 1141 2.89330264E-08
  1 1142 2.85269526E-08
  1 1143 2.92063972E-08
  1 1144 2.90708163E-08
  1 1145 2.80051287E-08
  1 1146 2.81185944E-08
  1 1147 2.55228686E-08
  1 1148 2.25236814E-08
  1 1149 2.34368716E-08
  1 1150 2.31919026E-08
  1 1151 2.46258602E-08
  1 1152 2.25644497E-08
  1 1153 1.96018531E-08
  1 1154 1.79991113E-08
  1 1155 1.37079456E-08
  1 1156 1.09286771E-08
  1 1157 1.02524090E-08
  1 1158 8.03143468E-09
  1 1159 8.80355929E-09
  1 1160 1.09577594E-08
  1 1161 1.17753509E-08
  1 1162 1.25515381E-08
  1 1163 1.25581433E-08
  1 1164 1.59771681E-08
  1 1165 1.90765595E-08
  1 1166 1.63433096E-08
  1 1167 1.48761423E-08
  1 1168 1.38612535E-08
  1 1169 1.30481012E-08
  1 1170 1.56162803E-08
  1 1171 1.59335016E-08
  1 1172 1.70382156E-08
  1 1173 1.69332256E-08
  1 1174 1.57952596E-08
  1 1175 1.62272021E-08
  1 1176 1.61612476E-08
  1 1177 1.38498651E-08
  1 1178 1.30596428E-08
  1 1179 1.18167824E-08
  1 1180 1.46801431E-08
  1 1181 1.91796509E-08
  1 1182 1.87230118E-08
  1 1183 2.10339336E-08
  1 1184 2.15502392E-08
  1 1185 2.02461042E-08
  1 1186 1.83482416E-08
  1 1187 1.82585975E-08
  1 1188 2.04644611E-08
  1 1189 2.02587749E-08
  1 1190 1.55771362E-08
  1 1191 1.48051569E-08
  1 1192 1.38630263E-08
  1 1193 9.83595473E-09
  1 1194 8.52374691E-09
  1 1195 7.63226750E-09
  1 1196 9.94657403E-09
  1 1197 1.10597414E-08
  1 1198 1.03044649E-08
  1 1199 1.21759217E-08
  1 1200 1.23537747E-08
  1 1201 1.69524443E-08
  1 1202 1.72008984E-08
  1 1203 1.58866408E-08
  1 1204 1.62437502E-08
  1 1205 1.67692328E-08
  1 1206 1.49372800E-08
  1 1207 1.58112686E-08
  1 1208 1.63195024E-08
  1 1209 1.87380754E-08
  1 1210 2.06758964E-08
  1 1211 1.80108148E-08
  1 1212 1.88582645E-08
  1 1213 1.94021866E-08
  1 1214 1.95874691E-08
  1 1215 1.83862761E-08
  1 1216 1.50144379E-08
  1 1217 1.30537392E-08
  1 1218 1.49319748E-08
  1 1219 1.42484371E-08
  1 1220 1.35404601E-08
  1 1221 1.15419984E-08
  1 1222 1.01866132E-08
  1 1223 1.22214437E-08
  1 1224 1.00722920E-08
  1 1225 8.79526226E-09
  1 1226 8.93110002E-09
  1 1227 1.07234895E-08
  1 1228 1.62978147E-08
  1 1229 1.97566529E-08
  1 1230 1.84824339E-08
  1 1231 1.89599602E-08
  1 1232 2.09620508E-08
  1 1233 2.49322396E-08
  1 1234 2.63149956E-08
  1 1235 2.35650123E-08
  1 1236 2.44754959E-08
  1 1237 2.67153650E-08
  1 1238 2.86272206E-08
  1 1239 3.11312735E-08
  1 1240 2.88428716E-08
  1 1241 2.83125439E-08
  1 1242 3.03384595E-08
  1 1243 2.94346547E-08
  1 1244 2.72107513E-08
  1 1245 2.40509681E-08
  1 1246 2.43059903E-08
  1 1247 2.56445937E-08
  1 1248 2.32507215E-08
  1 1249 2.09727807E-08
  1 1250 2.03860909E-08
  1 1251 1.50978049E-08
  1 1252 1.25218589E-08
  1 1253 1.06724186E-08
  1 1254 1.00320165E-08
  1 1255 1.09464365E-08
  1 1256 1.04860614E-08
  1 1257 1.32980466E-08
  1 1258 1.45341166E-08
  1 1259 1.29130920E-08
  1 1260 1.30714159E-08
  1 1261 1.55687176E-08
  1 1262 1.71640413E-08
  1 1263 1.85902241E-08
  1 1264 1.51082497E-08
  1 1265 1.45425215E-08
  1 1266 1.58978327E-08
  1 1267 1.50855601E-08
  1 1268 1.70035499E-08
  1 1269 1.86564706E-08
  1 1270 1.93673719E-08
  1 1271 1.79435307E-08
  1 1272 1.47922399E-08
  1 1273 1.60816484E-08
  1 1274 1.80661888E-08
  1 1275 1.52958010E-08
  1 1276 1.46064293E-08
  1 1277 1.55195161E-08
  1 1278 1.72791408E-08
  1 1279 1.91672326E-08
  1 1280 1.84170557E-08
  1 1281 1.91703572E-08
  1 1282 1.90053163E-08
  1 1283 1.54339691E-08
  1 1284 1.67326161E-08
  1 1285 1.80981597E-08
  1 1286 1.79397134E-08
  1 1287 1.58022467E-08
  1 1288 1.26404218E-08
  1 1289 1.24367864E-08