# File generated by Flopy version 3.5.0 on 02/26/2024 at 10:20:26.
BEGIN options
END options

BEGIN dimensions
  MAXBOUND  5000
END dimensions

BEGIN period  1
  1 1 1.67240842E-08
  1 2 1.61627532E-08
  1 3 1.61098179E-08
  1 4 1.46147399E-08
  1 5 1.21358760E-08
  1 6 1.05060275E-08
  1 7 8.60576973E-09
  1 8 8.69010554E-09
  1 9 1.05445873E-08
  1 10 1.14598010E-08
  1 11 1.27871873E-08
  1 12 1.42277906E-08
  1 13 1.59216613E-08
  1 14 1.87588681E-08
  1 15 2.04659930E-08
  1 16 2.23096790E-08
  1 17 2.58489533E-08
  1 18 2.83996393E-08
  1 19 2.76833805E-08
  1 20 2.34001725E-08
  1 21 2.07539044E-08
  1 22 2.22984114E-08
  1 23 2.18078256E-08
  1 24 1.93924545E-08
  1 25 1.86002310E-08
  1 26 1.80582684E-08
  1 27 1.99853628E-08
  1 28 2.48323254E-08
  1 29 2.87817587E-08
  1 30 3.05228140E-08
  1 31 2.94164511E-08
  1 32 2.85415312E-08
  1 33 2.84740971E-08
  1 34 2.35054123E-08
  1 35 1.73084697E-08
  1 36 1.55604251E-08
  1 37 1.50098381E-08
  1 38 1.49328705E-08
  1 39 1.55291331E-08
  1 40 1.52920531E-08
  1 41 1.41291827E-08
  1 42 1.09356986E-08
  1 43 9.16103390E-09
  1 44 1.14003823E-08
  1 45 1.27169205E-08
  1 46 1.26597220E-08
  1 47 1.31757698E-08
  1 48 1.33179814E-08
  1 49 1.35482313E-08
  1 50 1.22125327E-08
  1 51 1.00465431E-08
  1 52 1.02582265E-08
  1 53 1.06514278E-08
  1 54 1.21045318E-08
  1 55 1.66258398E-08
  1 56 1.98663519E-08
  1 57 2.04870296E-08
  1 58 2.06694809E-08
  1 59 2.25901786E-08
  1 60 2.62678757E-08
  1 61 2.67199655E-08
  1 62 2.49072313E-08
  1 63 2.51849385E-08
  1 64 2.45818274E-08
  1 65 2.31599306E-08
  1 66 2.40429405E-08
  1 67 2.54684086E-08
  1 68 2.48874341E-08
  1 69 2.11980062E-08
  1 70 1.81855974E-08
  1 71 1.85190652E-08
  1 72 1.73443713E-08
  1 73 1.56194176E-08
  1 74 1.72126406E-08
  1 75 1.96038315E-08
  1 76 2.25455878E-08
  1 77 2.53185623E-08
  1 78 2.62353201E-08
  1 79 2.69838890E-08
  1 80 2.55047351E-08
  1 81 2.27001571E-08
  1 82 2.29296486E-08
  1 83 2.32350458E-08
  1 84 2.31443196E-08
  1 85 2.49467986E-08
  1 86 2.62913562E-08
  1 87 2.65806836E-08
  1 88 2.45398538E-08
  1 89 2.10648108E-08
  1 90 2.14778174E-08
  1 91 2.24150064E-08
  1 92 1.97736142E-08
  1 93 1.78403085E-08
  1 94 1.77622587E-08
  1 95 1.78428173E-08
  1 96 1.82666600E-08
  1 97 2.00675359E-08
  1 98 2.23342669E-08
  1 99 1.97313945E-08
  1 100 1.34642282E-08
  1 101 1.52894316E-08
  1 102 1.20701735E-08
  1 103 1.04901181E-08
  1 104 1.03882182E-08
  1 105 1.02757464E-08
  1 106 1.08001947E-08
  1 107 1.09969377E-08
  1 108 1.28137505E-08
  1 109 1.69415609E-08
  1 110 1.86660731E-08
  1 111 1.92395278E-08
  1 112 2.11643936E-08
  1 113 2.36953019E-08
  1 114 2.80787634E-08
  1 115 3.04960856E-08
  1 116 2.76060889E-08
  1 117 2.31308781E-08
  1 118 1.95246053E-08
  1 119 1.97350367E-08
  1 120 2.20182735E-08
  1 121 1.95206312E-08
  1 122 1.65491396E-08
  1 123 1.83397851E-08
  1 124 2.15553646E-08
  1 125 2.55375861E-08
  1 126 2.86918327E-08
  1 127 2.91543288E-08
  1 128 2.92472262E-08
  1 129 2.83631169E-08
  1 130 2.59988331E-08
  1 131 2.20513155E-08
  1 132 1.56445167E-08
  1 133 1.17225161E-08
  1 134 1.28283115E-08
  1 135 1.54349491E-08
  1 136 1.76085411E-08
  1 137 1.76231441E-08
  1 138 1.58858973E-08
  1 139 1.42728384E-08
  1 140 1.29336613E-08
  1 141 1.37333702E-08
  1 142 1.53803596E-08
  1 143 1.55697683E-08
  1 144 1.66734550E-08
  1 145 1.74215739E-08
  1 146 1.63466608E-08
  1 147 1.47398518E-08
  1 148 1.13277628E-08
  1 149 9.35204183E-09
  1 150 1.11882407E-08
  1 151 1.30663605E-08
  1 152 1.58121482E-08
  1 153 1.90103597E-08
  1 154 2.03627296E-08
  1 155 2.29583878E-08
  1 156 2.57937204E-08
  1 157 2.69829149E-08
  1 158 2.80022451E-08
  1 159 2.70364323E-08
  1 160 2.55885040E-08
  1 161 2.53867040E-08
  1 162 2.36657663E-08
  1 163 2.23447616E-08
  1 164 2.20965693E-08
  1 165 2.05460171E-08
  1 166 1.93416432E-08
  1 167 1.85166077E-08
  1 168 1.79279433E-08
  1 169 1.83118993E-08
  1 170 1.83289014E-08
  1 171 1.99415466E-08
  1 172 2.30446060E-08
  1 173 2.44252828E-08
  1 174 2.55960647E-08
  1 175 2.66571798E-08
  1 176 2.66461765E-08
  1 177 2.60587165E-08
  1 178 2.31158008E-08
  1 179 2.04695018E-08
  1 180 2.12687848E-08
  1 181 2.32852531E-08
  1 182 2.65096121E-08
  1 183 2.91896707E-08
  1 184 2.85568683E-08
  1 185 2.72606280E-08
  1 186 2.66245456E-08
  1 187 2.72630092E-08
  1 188 2.80929357E-08
  1 189 2.49731766E-08
  1 190 2.14322023E-08
  1 191 2.09546585E-08
  1 192 2.02600439E-08
  1 193 2.02668987E-08
  1 194 2.19205701E-08
  1 195 2.28068758E-08
  1 196 2.10050834E-08
  1 197 1.52843376E-08
  1 198 1.05514506E-08
  1 199 9.36030746E-09
  1 200 7.45005297E-09
  1 201 1.22214094E-08
  1 202 1.30267588E-08
  1 203 1.35402917E-08
  1 204 1.41204775E-08
  1 205 1.45491721E-08
  1 206 1.69090422E-08
  1 207 1.94474697E-08
  1 208 1.82586022E-08
  1 209 1.90798746E-08
  1 210 2.44560786E-08
  1 211 2.83622521E-08
  1 212 2.87213983E-08
  1 213 2.62147694E-08
  1 214 2.30477633E-08
  1 215 2.09429399E-08
  1 216 1.89965472E-08
  1 217 1.90178769E-08
  1 218 1.94606474E-08
  1 219 1.76913473E-08
  1 220 1.87170634E-08
  1 221 2.26440882E-08
  1 222 2.45147974E-08
  1 223 2.50751075E-08
  1 224 2.59846282E-08
  1 225 2.76872127E-08
  1 226 2.78004548E-08
  1 227 2.35607476E-08
  1 228 1.84616177E-08
  1 229 1.40235332E-08
  1 230 1.06013396E-08
  1 231 1.19118355E-08
  1 232 1.55656925E-08
  1 233 1.84140466E-08
  1 234 2.06824211E-08
  1 235 2.04796851E-08
  1 236 1.94091023E-08
  1 237 1.83086279E-08
  1 238 1.57988703E-08
  1 239 1.58737462E-08
  1 240 1.83594973E-08
  1 241 1.98903965E-08
  1 242 2.07843618E-08
  1 243 1.87122220E-08
  1 244 1.52852308E-08
  1 245 1.44552469E-08
  1 246 1.34942921E-08
  1 247 1.31437514E-08
  1 248 1.47864503E-08
  1 249 1.54880254E-08
  1 250 1.73066503E-08
  1 251 2.12382398E-08
  1 252 2.42346659E-08
  1 253 2.52678060E-08
  1 254 2.42105726E-08
  1 255 2.40126580E-08
  1 256 2.53122172E-08
  1 257 2.39670528E-08
  1 258 2.16808391E-08
  1 259 2.11257010E-08
  1 260 2.08042783E-08
  1 261 2.04290864E-08
  1 262 1.96982559E-08
  1 263 1.91692713E-08
  1 264 1.82259698E-08
  1 265 1.57652519E-08
  1 266 1.63516370E-08
  1 267 1.95987773E-08
  1 268 2.04334268E-08
  1 269 2.10593007E-08
  1 270 2.24270073E-08
  1 271 2.36337466E-08
  1 272 2.56276311E-08
  1 273 2.53624064E-08
  1 274 2.31341508E-08
  1 275 2.08829965E-08
  1 276 1.78473962E-08
  1 277 1.93879085E-08
  1 278 2.58862226E-08
  1 279 2.95773786E-08
  1 280 3.02289846E-08
  1 281 2.99711761E-08
  1 282 2.98525838E-08
  1 283 3.12010491E-08
  1 284 3.05298215E-08
  1 285 2.81341062E-08
  1 286 2.69894828E-08
  1 287 2.49827501E-08
  1 288 2.26577461E-08
  1 289 2.12917715E-08
  1 290 2.03477536E-08
  1 291 2.12499819E-08
  1 292 2.24904904E-08
  1 293 2.21568544E-08
  1 294 1.95453951E-08
  1 295 1.34773447E-08
  1 296 8.33420035E-09
  1 297 7.39049804E-09
  1 298 8.39115451E-09
  1 299 1.02866346E-08
  1 300 1.10574194E-08
  1 301 1.53958256E-08
  1 302 1.53817638E-08
  1 303 1.59552326E-08
  1 304 1.84129353E-08
  1 305 1.88116667E-08
  1 306 1.77362844E-08
  1 307 2.13444178E-08
  1 308 2.50447413E-08
  1 309 2.47503801E-08
  1 310 2.46091082E-08
  1 311 2.37239005E-08
  1 312 2.06039326E-08
  1 313 1.69298083E-08
  1 314 1.52051419E-08
  1 315 1.78581381E-08
  1 316 1.98568689E-08
  1 317 1.92294218E-08
  1 318 2.15060922E-08
  1 319 2.35869221E-08
  1 320 2.30634512E-08
  1 321 2.47461862E-08
  1 322 2.68063841E-08
  1 323 2.56079649E-08
  1 324 2.14403842E-08
  1 325 1.64758464E-08
  1 326 1.38364298E-08
  1 327 1.19705339E-08
  1 328 1.09386868E-08
  1 329 1.41777440E-08
  1 330 1.89525497E-08
  1 331 2.27020859E-08
  1 332 2.46896490E-08
  1 333 2.28402703E-08
  1 334 1.99390556E-08
  1 335 1.82916738E-08
  1 336 1.80970361E-08
  1 337 2.08723145E-08
  1 338 2.31359104E-08
  1 339 2.18954861E-08
  1 340 1.89227785E-08
  1 341 1.62570213E-08
  1 342 1.68394687E-08
  1 343 1.77086740E-08
  1 344 1.47959945E-08
  1 345 1.36048007E-08
  1 346 1.57530745E-08
  1 347 1.76881353E-08
  1 348 2.01776104E-08
  1 349 2.20334784E-08
  1 350 2.20258057E-08
  1 351 2.14306484E-08
  1 352 2.13675372E-08
  1 353 2.32102381E-08
  1 354 2.26679207E-08
  1 355 1.83756336E-08
  1 356 1.80414883E-08
  1 357 2.06606356E-08
  1 358 2.06269042E-08
  1 359 1.95377548E-08
  1 360 1.82191572E-08
  1 361 1.72705723E-08
  1 362 1.69974050E-08
  1 363 1.66636768E-08
  1 364 1.83621124E-08
  1 365 1.92824585E-08
  1 366 1.75894910E-08
  1 367 1.90692553E-08
  1 368 2.25629486E-08
  1 369 2.38421124E-08
  1 370 2.33832929E-08
  1 371 2.02244882E-08
  1 372 1.67478852E-08
  1 373 1.65229851E-08
  1 374 1.91006469E-08
  1 375 2.43661261E-08
  1 376 2.88834430E-08
  1 377 3.00556434E-08
  1 378 3.11064935E-08
  1 379 3.22685549E-08
  1 380 3.20712445E-08
  1 381 3.00983899E-08
  1 382 2.70018961E-08
  1 383 2.65245212E-08
  1 384 2.67990446E-08
  1 385 2.36602969E-08
  1 386 2.02598226E-08
  1 387 1.92617010E-08
  1 388 2.10641346E-08
  1 389 2.38481415E-08
  1 390 2.30554362E-08
  1 391 1.95770683E-08
  1 392 1.44575963E-08
  1 393 8.63514469E-09
  1 394 8.22628979E-09
  1 395 1.04749565E-08
  1 396 9.41261651E-09
  1 397 9.04099193E-09
  1 398 1.09794889E-08
  1 399 1.39526684E-08
  1 400 1.73497409E-08
  1 401 1.73822203E-08
  1 402 1.95787366E-08
  1 403 1.90846297E-08
  1 404 1.73560304E-08
  1 405 1.99695211E-08
  1 406 2.24759176E-08
  1 407 2.19734807E-08
  1 408 2.08371408E-08
  1 409 1.74758086E-08
  1 410 1.42523238E-08
  1 411 1.47442217E-08
  1 412 1.71734407E-08
  1 413 1.97688985E-08
  1 414 2.09555082E-08
  1 415 2.17240406E-08
  1 416 2.35747084E-08
  1 417 2.45319318E-08
  1 418 2.55641353E-08
  1 419 2.62784182E-08
  1 420 2.36304731E-08
  1 421 2.00932241E-08
  1 422 1.68091645E-08
  1 423 1.23725973E-08
  1 424 8.62174171E-09
  1 425 8.05485917E-09
  1 426 1.29636449E-08
  1 427 2.00591068E-08
  1 428 2.40604420E-08
  1 429 2.65938170E-08
  1 430 2.58834365E-08
  1 431 2.08086166E-08
  1 432 1.87743085E-08
  1 433 1.97465300E-08
  1 434 1.98329625E-08
  1 435 2.01355571E-08
  1 436 1.89666258E-08
  1 437 1.69907039E-08
  1 438 1.64837196E-08
  1 439 1.61847524E-08
  1 440 1.66563394E-08
  1 441 1.58729635E-08
  1 442 1.37190004E-08
  1 443 1.57700014E-08
  1 444 1.88577548E-08
  1 445 1.85749525E-08
  1 446 1.84971581E-08
  1 447 1.89496289E-08
  1 448 1.90757049E-08
  1 449 1.96025104E-08
  1 450 1.95760822E-08
  1 451 1.90166391E-08
  1 452 1.79441760E-08
  1 453 1.84940495E-08
  1 454 2.14161139E-08
  1 455 2.11974430E-08
  1 456 1.84164219E-08
  1 457 1.78503171E-08
  1 458 1.80850159E-08
  1 459 1.81660385E-08
  1 460 1.78098860E-08
  1 461 1.69405769E-08
  1 462 1.73631594E-08
  1 463 1.76246392E-08
  1 464 1.84840946E-08
  1 465 2.10911331E-08
  1 466 2.11088867E-08
  1 467 1.90205318E-08
  1 468 1.65103723E-08
  1 469 1.27700486E-08
  1 470 1.24384693E-08
  1 471 1.61251507E-08
  1 472 2.02246115E-08
  1 473 2.53636661E-08
  1 474 2.96226462E-08
  1 475 3.16056992E-08
  1 476 3.22524218E-08
  1 477 3.05401693E-08
  1 478 2.89059264E-08
  1 479 2.81217500E-08
  1 480 2.63159160E-08
  1 481 2.50898653E-08
  1 482 2.20827605E-08
  1 483 1.71759675E-08
  1 484 1.70387186E-08
  1 485 2.08145243E-08
  1 486 2.35439363E-08
  1 487 2.31600566E-08
  1 488 1.95260831E-08
  1 489 1.65534919E-08
  1 490 1.46452247E-08
  1 491 1.22314924E-08
  1 492 1.16533815E-08
  1 493 1.11856954E-08
  1 494 1.05755765E-08
  1 495 1.34454561E-08
  1 496 1.71311780E-08
  1 497 1.93480369E-08
  1 498 2.08064562E-08
  1 499 2.12449858E-08
  1 500 2.21608855E-08
  1 501 1.71700834E-08
  1 502 1.83911855E-08
  1 503 2.18670059E-08
  1 504 2.10879762E-08
  1 505 1.80742826E-08
  1 506 1.63771074E-08
  1 507 1.48436210E-08
  1 508 1.51425740E-08
  1 509 1.69554723E-08
  1 510 1.94861015E-08
  1 511 2.30141290E-08
  1 512 2.44434793E-08
  1 513 2.46215697E-08
  1 514 2.53694215E-08
  1 515 2.52032866E-08
  1 516 2.53579114E-08
  1 517 2.46159710E-08
  1 518 2.18237350E-08
  1 519 1.87352181E-08
  1 520 1.25508671E-08
  1 521 6.39656815E-09
  1 522 7.90613870E-09
  1 523 1.35811256E-08
  1 524 1.84589860E-08
  1 525 2.24007149E-08
  1 526 2.52068763E-08
  1 527 2.63242462E-08
  1 528 2.29827959E-08
  1 529 1.84041662E-08
  1 530 1.84455691E-08
  1 531 1.78901549E-08
  1 532 1.46998964E-08
  1 533 1.42934420E-08
  1 534 1.48195774E-08
  1 535 1.38497889E-08
  1 536 1.36756803E-08
  1 537 1.55978926E-08
  1 538 1.78560603E-08
  1 539 1.70536645E-08
  1 540 1.60876547E-08
  1 541 1.80844102E-08
  1 542 1.81799881E-08
  1 543 1.62372931E-08
  1 544 1.60340204E-08
  1 545 1.65575859E-08
  1 546 1.67223228E-08
  1 547 1.58507105E-08
  1 548 1.60604309E-08
  1 549 1.94250095E-08
  1 550 2.13515188E-08
  1 551 2.11339035E-08
  1 552 2.11198914E-08
  1 553 2.02106254E-08
  1 554 2.05642583E-08
  1 555 2.09737785E-08
  1 556 1.84068707E-08
  1 557 1.68553146E-08
  1 558 1.57574344E-08
  1 559 1.37568707E-08
  1 560 1.49340688E-08
  1 561 1.69430040E-08
  1 562 1.73259685E-08
  1 563 1.76312899E-08
  1 564 1.64323135E-08
  1 565 1.38410838E-08
  1 566 1.00291043E-08
  1 567 6.97740212E-09
  1 568 1.03227141E-08
  1 569 1.68057556E-08
  1 570 2.10115178E-08
  1 571 2.49591679E-08
  1 572 2.80259577E-08
  1 573 2.81660323E-08
  1 574 2.66421651E-08
  1 575 2.57219365E-08
  1 576 2.63169861E-08
  1 577 2.48432508E-08
  1 578 2.10744979E-08
  1 579 1.88210444E-08
  1 580 1.70156919E-08
  1 581 1.66288761E-08
  1 582 1.93267921E-08
  1 583 2.13423016E-08
  1 584 2.16867921E-08
  1 585 2.05193407E-08
  1 586 1.85647629E-08
  1 587 1.85147902E-08
  1 588 1.72905995E-08
  1 589 1.44784563E-08
  1 590 1.42949997E-08
  1 591 1.48735423E-08
  1 592 1.60850769E-08
  1 593 1.87398369E-08
  1 594 2.00187139E-08
  1 595 2.16326977E-08
  1 596 2.31925591E-08
  1 597 2.24255474E-08
  1 598 2.22574118E-08
  1 599 2.13929481E-08
  1 600 1.84799259E-08
  1 601 1.98900721E-08
  1 602 1.80155876E-08
  1 603 1.62250572E-08
  1 604 1.44519429E-08
  1 605 1.25633265E-08
  1 606 1.48411564E-08
  1 607 1.94310994E-08
  1 608 2.30627104E-08
  1 609 2.58621902E-08
  1 610 2.63518221E-08
  1 611 2.56392958E-08
  1 612 2.56111831E-08
  1 613 2.62988309E-08
  1 614 2.69556695E-08
  1 615 2.39381765E-08
  1 616 1.79829211E-08
  1 617 1.30498956E-08
  1 618 9.39427658E-09
  1 619 9.57959769E-09
  1 620 1.35177258E-08
  1 621 1.66219144E-08
  1 622 1.96460761E-08
  1 623 2.25954695E-08
  1 624 2.32646312E-08
  1 625 2.17780530E-08
  1 626 1.82101299E-08
  1 627 1.65458450E-08
  1 628 1.75742162E-08
  1 629 1.58130123E-08
  1 630 1.35525967E-08
  1 631 1.31867309E-08
  1 632 1.20495142E-08
  1 633 1.28556918E-08
  1 634 1.59094316E-08
  1 635 1.76882462E-08
  1 636 1.79731409E-08
  1 637 1.72671406E-08
  1 638 1.80403286E-08
  1 639 1.91174683E-08
  1 640 1.64793518E-08
  1 641 1.43979816E-08
  1 642 1.48308522E-08
  1 643 1.45800866E-08
  1 644 1.58279955E-08
  1 645 1.90768796E-08
  1 646 2.22293331E-08
  1 647 2.39302077E-08
  1 648 2.23541628E-08
  1 649 2.09912591E-08
  1 650 2.16847444E-08
  1 651 2.10774830E-08
  1 652 2.01791397E-08
  1 653 1.91194476E-08
  1 654 1.68272457E-08
  1 655 1.51429572E-08
  1 656 1.30173271E-08
  1 657 1.16707821E-08
  1 658 1.34347124E-08
  1 659 1.50802189E-08
  1 660 1.57715276E-08
  1 661 1.53968571E-08
  1 662 1.20290110E-08
  1 663 7.79576543E-09
  1 664 5.53446179E-09
  1 665 7.75813699E-09
  1 666 1.30710306E-08
  1 667 1.55061059E-08
  1 668 1.70109313E-08
  1 669 2.04626965E-08
  1 670 2.18186912E-08
  1 671 2.13671327E-08
  1 672 2.12591659E-08
  1 673 2.17079997E-08
  1 674 2.21441151E-08
  1 675 1.95789936E-08
  1 676 1.71397357E-08
  1 677 1.79435870E-08
  1 678 1.75076676E-08
  1 679 1.77496610E-08
  1 680 2.07321532E-08
  1 681 2.11309691E-08
  1 682 1.91384014E-08
  1 683 1.71264134E-08
  1 684 1.62708060E-08
  1 685 1.76331444E-08
  1 686 1.71405342E-08
  1 687 1.54619122E-08
  1 688 1.70446354E-08
  1 689 1.91458686E-08
  1 690 2.07184828E-08
  1 691 2.27542759E-08
  1 692 2.31404996E-08
  1 693 2.17507758E-08
  1 694 1.91247360E-08
  1 695 1.74128065E-08
  1 696 1.80785079E-08
  1 697 1.73331713E-08
  1 698 1.54287125E-08
  1 699 1.51614982E-08
  1 700 1.47764289E-08
  1 701 1.02197154E-08
  1 702 9.26785211E-09
  1 703 1.26325686E-08
  1 704 1.86276827E-08
  1 705 2.20849395E-08
  1 706 2.44889920E-08
  1 707 2.66279866E-08
  1 708 2.64468497E-08
  1 709 2.64981231E-08
  1 710 2.70853604E-08
  1 711 2.66079570E-08
  1 712 2.36293193E-08
  1 713 1.66792075E-08
  1 714 1.16255726E-08
  1 715 1.06290446E-08
  1 716 9.02125221E-09
  1 717 1.04940028E-08
  1 718 1.60932277E-08
  1 719 1.97225511E-08
  1 720 2.12086304E-08
  1 721 2.10143217E-08
  1 722 1.96405840E-08
  1 723 1.89767806E-08
  1 724 1.76561790E-08
  1 725 1.72840058E-08
  1 726 1.74722076E-08
  1 727 1.41046458E-08
  1 728 1.13768315E-08
  1 729 1.25760644E-08
  1 730 1.39918370E-08
  1 731 1.44292588E-08
  1 732 1.44919126E-08
  1 733 1.59424445E-08
  1 734 1.90218551E-08
  1 735 2.04961829E-08
  1 736 2.03443060E-08
  1 737 1.88559802E-08
  1 738 1.61704198E-08
  1 739 1.49488819E-08
  1 740 1.47463044E-08
  1 741 1.62760520E-08
  1 742 2.03914766E-08
  1 743 2.28030549E-08
  1 744 2.36676713E-08
  1 745 2.41993076E-08
  1 746 2.21950587E-08
  1 747 1.99697143E-08
  1 748 1.88886770E-08
  1 749 1.88566219E-08
  1 750 2.01402362E-08
  1 751 1.81517594E-08
  1 752 1.41716735E-08
  1 753 1.29899438E-08
  1 754 1.19352815E-08
  1 755 1.23073187E-08
  1 756 1.57873746E-08
  1 757 1.66550869E-08
  1 758 1.35261814E-08
  1 759 9.00903253E-09
  1 760 6.30505655E-09
  1 761 7.21671029E-09
  1 762 7.80404195E-09
  1 763 8.33345421E-09
  1 764 1.13266621E-08
  1 765 1.34484377E-08
  1 766 1.47556629E-08
  1 767 1.62234761E-08
  1 768 1.62066818E-08
  1 769 1.65817694E-08
  1 770 1.79087499E-08
  1 771 1.94186569E-08
  1 772 2.01955178E-08
  1 773 1.78279657E-08
  1 774 1.57282584E-08
  1 775 1.68150877E-08
  1 776 1.83348376E-08
  1 777 1.98735079E-08
  1 778 1.93807840E-08
  1 779 1.59538696E-08
  1 780 1.46231136E-08
  1 781 1.58536478E-08
  1 782 1.73325521E-08
  1 783 1.77240554E-08
  1 784 1.58222486E-08
  1 785 1.57804113E-08
  1 786 1.92744688E-08
  1 787 2.27668077E-08
  1 788 2.48805125E-08
  1 789 2.27535411E-08
  1 790 1.73987225E-08
  1 791 1.45453253E-08
  1 792 1.32970121E-08
  1 793 1.21146613E-08
  1 794 1.13401328E-08
  1 795 1.05241409E-08
  1 796 1.22604863E-08
  1 797 1.43138753E-08
  1 798 1.27988090E-08
  1 799 1.06726427E-08
  1 800 8.78512211E-09
  1 801 1.59490904E-08
  1 802 2.08370880E-08
  1 803 2.29351712E-08
  1 804 2.50909515E-08
  1 805 2.66639676E-08
  1 806 2.52068126E-08
  1 807 2.43713861E-08
  1 808 2.42650794E-08
  1 809 2.21730393E-08
  1 810 1.73360431E-08
  1 811 1.11612092E-08
  1 812 8.74769388E-09
  1 813 9.66140179E-09
  1 814 1.11325385E-08
  1 815 1.59054035E-08
  1 816 2.04480009E-08
  1 817 1.98899915E-08
  1 818 1.84420297E-08
  1 819 1.90836856E-08
  1 820 2.06233304E-08
  1 821 2.05271124E-08
  1 822 1.81561522E-08
  1 823 1.66711378E-08
  1 824 1.50639922E-08
  1 825 1.29601448E-08
  1 826 1.35944542E-08
  1 827 1.36032047E-08
  1 828 1.15644596E-08
  1 829 1.19561866E-08
  1 830 1.51828375E-08
  1 831 1.96756281E-08
  1 832 2.21350335E-08
  1 833 2.13132072E-08
  1 834 2.10901113E-08
  1 835 1.99557216E-08
  1 836 1.69626616E-08
  1 837 1.59078697E-08
  1 838 1.58039509E-08
  1 839 1.76455599E-08
  1 840 2.19372404E-08
  1 841 2.32297322E-08
  1 842 2.23110341E-08
  1 843 2.08433631E-08
  1 844 1.77542685E-08
  1 845 1.76593118E-08
  1 846 2.08901395E-08
  1 847 2.22287247E-08
  1 848 1.97310914E-08
  1 849 1.42804298E-08
  1 850 1.11012977E-08
  1 851 1.19157975E-08
  1 852 1.26528319E-08
  1 853 1.42113736E-08
  1 854 1.55030565E-08
  1 855 1.23748615E-08
  1 856 8.46826157E-09
  1 857 7.97402770E-09
  1 858 8.93533631E-09
  1 859 7.75877931E-09
  1 860 6.21221162E-09
  1 861 9.61315020E-09
  1 862 1.34363922E-08
  1 863 1.21077655E-08
  1 864 1.09309455E-08
  1 865 1.15019539E-08
  1 866 1.17554061E-08
  1 867 1.33211795E-08
  1 868 1.52560849E-08
  1 869 1.64787108E-08
  1 870 1.57742351E-08
  1 871 1.38190293E-08
  1 872 1.65392499E-08
  1 873 2.06258505E-08
  1 874 1.92120652E-08
  1 875 1.61825730E-08
  1 876 1.39172903E-08
  1 877 1.29875356E-08
  1 878 1.51967036E-08
  1 879 1.63364176E-08
  1 880 1.54030374E-08
  1 881 1.48944134E-08
  1 882 1.47326173E-08
  1 883 1.75921976E-08
  1 884 2.20568172E-08
  1 885 2.24052214E-08
  1 886 1.86736962E-08
  1 887 1.38506487E-08
  1 888 1.16711936E-08
  1 889 1.13131397E-08
  1 890 7.82780364E-09
  1 891 5.23303369E-09
  1 892 8.07195190E-09
  1 893 1.17957960E-08
  1 894 1.29208038E-08
  1 895 1.15845863E-08
  1 896 1.00755329E-08
  1 897 9.38666701E-09
  1 898 7.91738832E-09
  1 899 8.06973115E-09
  1 900 8.41355293E-09
  1 901 2.34360084E-08
  1 902 2.37044354E-08
  1 903 2.34086731E-08
  1 904 2.28649920E-08
  1 905 2.36290205E-08
  1 906 2.16751791E-08
  1 907 1.63603488E-08
  1 908 1.02659842E-08
  1 909 6.72704712E-09
  1 910 9.34894067E-09
  1 911 1.35017965E-08
  1 912 1.61063125E-08
  1 913 1.94059444E-08
  1 914 1.96968006E-08
  1 915 1.81017621E-08
  1 916 1.99640889E-08
  1 917 2.18101505E-08
  1 918 2.11842958E-08
  1 919 1.93951588E-08
  1 920 1.75408975E-08
  1 921 1.75515223E-08
  1 922 1.70147875E-08
  1 923 1.46931633E-08
  1 924 1.27151934E-08
  1 925 1.05188396E-08
  1 926 1.08243995E-08
  1 927 1.47554475E-08
  1 928 1.77476755E-08
  1 929 2.03908205E-08
  1 930 2.36198021E-08
  1 931 2.50320374E-08
  1 932 2.43289431E-08
  1 933 2.12168161E-08
  1 934 1.80805325E-08
  1 935 1.76131229E-08
  1 936 1.90811419E-08
  1 937 2.28006271E-08
  1 938 2.45154244E-08
  1 939 2.06106047E-08
  1 940 1.74555020E-08
  1 941 1.74068942E-08
  1 942 1.81364314E-08
  1 943 2.06530980E-08
  1 944 2.26847439E-08
  1 945 2.13463721E-08
  1 946 1.69328983E-08
  1 947 1.25926465E-08
  1 948 1.28533158E-08
  1 949 1.42516856E-08
  1 950 1.33760373E-08
  1 951 1.38295467E-08
  1 952 1.34582467E-08
  1 953 1.06271081E-08
  1 954 9.24020581E-09
  1 955 8.40838950E-09
  1 956 7.54866996E-09
  1 957 7.90130984E-09
  1 958 9.22805440E-09
  1 959 1.13663907E-08
  1 960 1.05670099E-08
  1 961 7.84085442E-09
  1 962 8.74595516E-09
  1 963 9.64247269E-09
  1 964 8.93244632E-09
  1 965 1.01760373E-08
  1 966 1.07226173E-08
  1 967 1.07702101E-08
  1 968 1.31663020E-08
  1 969 1.62683031E-08
  1 970 1.87447383E-08
  1 971 1.85805450E-08
  1 972 1.62042984E-08
  1 973 1.47016787E-08
  1 974 1.30916559E-08
  1 975 1.23708809E-08
  1 976 1.32837258E-08
  1 977 1.23879899E-08
  1 978 1.15700439E-08
  1 979 1.35314791E-08
  1 980 1.65925261E-08
  1 981 1.91719761E-08
  1 982 1.92164076E-08
  1 983 1.73308438E-08
  1 984 1.47862697E-08
  1 985 1.09607546E-08
  1 986 8.02697336E-09
  1 987 5.39034847E-09
  1 988 3.21409313E-09
  1 989 6.40845990E-09
  1 990 1.03989437E-08
  1 991 9.55655810E-09
  1 992 8.40053853E-09
  1 993 8.69620768E-09
  1 994 9.60124494E-09
  1 995 9.99959377E-09
  1 996 7.73641394E-09
  1 997 5.70370468E-09
  1 998 4.07511344E-09
  1 999 1.93737947E-09
  1 1000 3.44428512E-09
  1 1001 2.31574944E-08
  1 1002 2.18258262E-08
  1 1003 1.92065219E-08
  1 1004 1.41479432E-08
  1 1005 8.86012019E-09
  1 1006 5.96624115E-09
  1 1007 6.07314687E-09
  1 1008 1.02889694E-08
  1 1009 1.46734239E-08
  1 1010 1.71389901E-08
  1 1011 1.97446500E-08
  1 1012 2.12964658E-08
  1 1013 2.22798219E-08
  1 1014 2.30016340E-08
  1 1015 2.16928034E-08
  1 1016 2.00689392E-08
  1 1017 1.82872757E-08
  1 1018 1.59518164E-08
  1 1019 1.47698721E-08
  1 1020 1.37096328E-08
  1 1021 1.24638386E-08
  1 1022 1.14082822E-08
  1 1023 1.12426321E-08
  1 1024 1.41015768E-08
  1 1025 1.70049711E-08
  1 1026 1.98976052E-08
  1 1027 2.67242740E-08
  1 1028 3.10606469E-08
  1 1029 2.86977194E-08
  1 1030 2.53190303E-08
  1 1031 2.31987849E-08
  1 1032 2.28821363E-08
  1 1033 2.35494198E-08
  1 1034 2.34263841E-08
  1 1035 2.37030386E-08
  1 1036 2.13848746E-08
  1 1037 1.71991050E-08
  1 1038 1.78152310E-08
  1 1039 1.98019012E-08
  1 1040 2.01936183E-08
  1 1041 2.26780242E-08
  1 1042 2.39015592E-08
  1 1043 2.06398535E-08
  1 1044 1.59793362E-08
  1 1045 1.37402333E-08
  1 1046 1.53179080E-08
  1 1047 1.65781854E-08
  1 1048 1.59557871E-08
  1 1049 1.54009688E-08
  1 1050 1.23983627E-08
  1 1051 8.25652701E-09
  1 1052 6.91021345E-09
  1 1053 6.98101216E-09
  1 1054 7.76234868E-09
  1 1055 8.55578224E-09
  1 1056 8.91540986E-09
  1 1057 1.03248254E-08
  1 1058 1.10936078E-08
  1 1059 1.10017360E-08
  1 1060 1.04166309E-08
  1 1061 7.78128036E-09
  1 1062 6.67712535E-09
  1 1063 7.74400944E-09
  1 1064 7.98893925E-09
  1 1065 1.02346594E-08
  1 1066 1.34839675E-08
  1 1067 1.48701594E-08
  1 1068 1.68434293E-08
  1 1069 1.81331446E-08
  1 1070 1.69603742E-08
  1 1071 1.47587181E-08
  1 1072 1.32107775E-08
  1 1073 1.45001422E-08
  1 1074 1.47533784E-08
  1 1075 1.20671297E-08
  1 1076 1.30846961E-08
  1 1077 1.62622150E-08
  1 1078 1.68044805E-08
  1 1079 1.74969262E-08
  1 1080 1.81963656E-08
  1 1081 1.65861233E-08
  1 1082 1.23737022E-08
  1 1083 7.58411617E-09
  1 1084 6.42789937E-09
  1 1085 6.52664214E-09
  1 1086 5.60972019E-09
  1 1087 6.95205151E-09
  1 1088 7.58339936E-09
  1 1089 6.32231320E-09
  1 1090 7.95945007E-09
  1 1091 1.06235138E-08
  1 1092 1.08761728E-08
  1 1093 8.49367872E-09
  1 1094 5.27346528E-09
  1 1095 4.98481781E-09
  1 1096 5.46504879E-09
  1 1097 3.65271908E-09
  1 1098 1.97186850E-09
  1 1099 1.73464607E-09
  1 1100 4.58759159E-09
  1 1101 1.31839001E-08
  1 1102 9.55577450E-09
  1 1103 6.30755597E-09
  1 1104 5.34179025E-09
  1 1105 7.83344881E-09
  1 1106 1.31754863E-08
  1 1107 1.66348977E-08
  1 1108 1.86782455E-08
  1 1109 2.07552122E-08
  1 1110 2.15882961E-08
  1 1111 2.28986504E-08
  1 1112 2.30021848E-08
  1 1113 2.00748787E-08
  1 1114 1.65283750E-08
  1 1115 1.22872136E-08
  1 1116 1.01995498E-08
  1 1117 1.20669819E-08
  1 1118 1.27303700E-08
  1 1119 1.24243369E-08
  1 1120 1.35818146E-08
  1 1121 1.55260526E-08
  1 1122 1.95143392E-08
  1 1123 2.43316659E-08
  1 1124 2.92667080E-08
  1 1125 3.34219039E-08
  1 1126 3.15474425E-08
  1 1127 2.75365002E-08
  1 1128 2.79294916E-08
  1 1129 2.81520765E-08
  1 1130 2.60910481E-08
  1 1131 2.47095230E-08
  1 1132 2.41853805E-08
  1 1133 2.30815751E-08
  1 1134 1.97248592E-08
  1 1135 1.74655445E-08
  1 1136 1.93212318E-08
  1 1137 2.16536874E-08
  1 1138 2.40667129E-08
  1 1139 2.60152300E-08
  1 1140 2.29597938E-08
  1 1141 1.67449033E-08
  1 1142 1.28933148E-08
  1 1143 1.40885540E-08
  1 1144 1.74090316E-08
  1 1145 1.70574493E-08
  1 1146 1.48507381E-08
  1 1147 1.30462656E-08
  1 1148 9.74402547E-09
  1 1149 7.87808408E-09
  1 1150 7.41460299E-09
  1 1151 6.05942945E-09
  1 1152 6.66078039E-09
  1 1153 8.30619346E-09
  1 1154 1.05860433E-08
  1 1155 1.45900325E-08
  1 1156 1.50225842E-08
  1 1157 1.17836258E-08
  1 1158 9.05815252E-09
  1 1159 6.78896005E-09
  1 1160 6.28521660E-09
  1 1161 6.33503485E-09
  1 1162 6.33254585E-09
  1 1163 1.02983598E-08
  1 1164 1.49637569E-08
  1 1165 1.69418640E-08
  1 1166 1.89527054E-08
  1 1167 1.93988293E-08
  1 1168 1.77972427E-08
  1 1169 1.73131324E-08
  1 1170 1.79862914E-08
  1 1171 1.79603971E-08
  1 1172 1.57140829E-08
  1 1173 1.46988445E-08
  1 1174 1.75670691E-08
  1 1175 1.88337873E-08
  1 1176 1.77662367E-08
  1 1177 1.80102638E-08
  1 1178 1.75818271E-08
  1 1179 1.52944952E-08
  1 1180 1.22713299E-08
  1 1181 1.05741177E-08
  1 1182 1.08495145E-08
  1 1183 9.10359790E-09
  1 1184 6.92035196E-09
  1 1185 7.30453989E-09
  1 1186 6.52897703E-09
  1 1187 6.52967402E-09
  1 1188 9.40695549E-09
  1 1189 1.03427158E-08
  1 1190 9.27872343E-09
  1 1191 7.69130512E-09
  1 1192 6.33672747E-09
  1 1193 6.59225935E-09
  1 1194 4.98492489E-09
  1 1195 2.42612898E-09
  1 1196 3.28672093E-09
  1 1197 5.34561247E-09
  1 1198 7.80418265E-09
  1 1199 1.03073257E-08
  1 1200 1.07068969E-08
  1 1201 7.05305264E-09
  1 1202 9.38523812E-09
  1 1203 1.29327462E-08
  1 1204 1.72661751E-08
  1 1205 1.82225865E-08
  1 1206 1.79366288E-08
  1 1207 2.00671489E-08
  1 1208 2.26937123E-08
  1 1209 2.28898851E-08
  1 1210 1.86023976E-08
  1 1211 1.34837472E-08
  1 1212 1.17014303E-08
  1 1213 1.11182064E-08
  1 1214 1.19293651E-08
  1 1215 1.43677843E-08
  1 1216 1.58715901E-08
  1 1217 1.72653639E-08
  1 1218 1.90731427E-08
  1 1219 2.24912909E-08
  1 1220 2.81037254E-08
  1 1221 3.13506862E-08
  1 1222 3.23128460E-08
  1 1223 3.27200637E-08
  1 1224 3.06722103E-08
  1 1225 2.91523559E-08
  1 1226 2.91739420E-08
  1 1227 2.83688167E-08
  1 1228 2.83531157E-08
  1 1229 2.76926602E-08
  1 1230 2.50605855E-08
  1 1231 2.21625346E-08
  1 1232 1.85988266E-08
  1 1233 1.76903718E-08
  1 1234 2.07918964E-08
  1 1235 2.30833848E-08
  1 1236 2.34284592E-08
  1 1237 2.06812510E-08
  1 1238 1.54972710E-08
  1 1239 1.35864695E-08
  1 1240 1.44455831E-08
  1 1241 1.55654885E-08
  1 1242 1.67056774E-08
  1 1243 1.57217370E-08
  1 1244 1.40421672E-08
  1 1245 1.24046455E-08
  1 1246 9.50114302E-09
  1 1247 7.88815552E-09
  1 1248 6.70024363E-09
  1 1249 5.48818326E-09
  1 1250 7.77641936E-09
  1 1251 1.11988537E-08
  1 1252 1.36583356E-08
  1 1253 1.56568390E-08
  1 1254 1.49299452E-08
  1 1255 1.24309674E-08
  1 1256 9.59887275E-09
  1 1257 6.66656313E-09
  1 1258 5.97459606E-09
  1 1259 7.08643308E-09
  1 1260 1.00676238E-08
  1 1261 1.46651106E-08
  1 1262 1.65768447E-08
  1 1263 1.71548280E-08
  1 1264 1.92760157E-08
  1 1265 2.07005960E-08
  1 1266 2.07384467E-08
  1 1267 1.90615374E-08
  1 1268 1.71221367E-08
  1 1269 1.73247553E-08
  1 1270 1.77217191E-08
  1 1271 1.91481280E-08
  1 1272 2.11444909E-08
  1 1273 1.97848585E-08
  1 1274 1.92746615E-08
  1 1275 2.10387177E-08
  1 1276 1.97629644E-08
  1 1277 1.67268529E-08
  1 1278 1.39090108E-08
  1 1279 1.20478956E-08
  1 1280 1.17780220E-08
  1 1281 9.24130552E-09
  1 1282 5.88939386E-09
  1 1283 5.17971022E-09
  1 1284 5.02373718E-09
  1 1285 7.00026434E-09
  1 1286 1.04303460E-08
  1 1287 1.05366141E-08
  1 1288 9.20958283E-09
  1 1289 8.49385964E-09