# File generated by Flopy version 3.5.0 on 02/28/2024 at 08:49:38.
BEGIN options
END options

BEGIN dimensions
  MAXBOUND  5000
END dimensions

BEGIN period  1
  1 1 1.56005962E-08
  1 2 1.57739606E-08
  1 3 1.61611760E-08
  1 4 1.66379545E-08
  1 5 1.70981519E-08
  1 6 1.75145168E-08
  1 7 1.79292609E-08
  1 8 1.83844077E-08
  1 9 1.88491038E-08
  1 10 1.92038921E-08
  1 11 1.92979135E-08
  1 12 1.90377866E-08
  1 13 1.84409758E-08
  1 14 1.76129943E-08
  1 15 1.66676369E-08
  1 16 1.56564926E-08
  1 17 1.45698553E-08
  1 18 1.34154303E-08
  1 19 1.23141301E-08
  1 20 1.15261450E-08
  1 21 1.13605231E-08
  1 22 1.20043511E-08
  1 23 1.33752739E-08
  1 24 1.51016169E-08
  1 25 1.66607461E-08
  1 26 1.76046813E-08
  1 27 1.77417298E-08
  1 28 1.71681551E-08
  1 29 1.61408904E-08
  1 30 1.48864835E-08
  1 31 1.34810612E-08
  1 32 1.18823325E-08
  1 33 1.00832823E-08
  1 34 8.26535913E-09
  1 35 6.82214206E-09
  1 36 6.21049652E-09
  1 37 6.70817502E-09
  1 38 8.23103252E-09
  1 39 1.03362809E-08
  1 40 1.24249570E-08
  1 41 1.40304286E-08
  1 42 1.50236678E-08
  1 43 1.56175016E-08
  1 44 1.61774880E-08
  1 45 1.69648195E-08
  1 46 1.79716787E-08
  1 47 1.89425276E-08
  1 48 1.95532820E-08
  1 49 1.96245653E-08
  1 50 1.92345028E-08
  1 51 1.86713252E-08
  1 52 1.82714400E-08
  1 53 1.82540400E-08
  1 54 1.86502973E-08
  1 55 1.93504499E-08
  1 56 2.02118664E-08
  1 57 2.11400776E-08
  1 58 2.20888035E-08
  1 59 2.29938370E-08
  1 60 2.37073090E-08
  1 61 2.39975531E-08
  1 62 2.36297239E-08
  1 63 2.24818615E-08
  1 64 2.06235146E-08
  1 65 1.83068989E-08
  1 66 1.58753998E-08
  1 67 1.36421209E-08
  1 68 1.18014712E-08
  1 69 1.04075089E-08
  1 70 9.40896065E-09
  1 71 8.70393927E-09
  1 72 8.18198460E-09
  1 73 7.74636688E-09
  1 74 7.33070391E-09
  1 75 6.92284952E-09
  1 76 6.58884458E-09
  1 77 6.47129524E-09
  1 78 6.74052731E-09
  1 79 7.50582969E-09
  1 80 8.72869498E-09
  1 81 1.01926311E-08
  1 82 1.15602449E-08
  1 83 1.24989294E-08
  1 84 1.28125512E-08
  1 85 1.25081391E-08
  1 86 1.17617767E-08
  1 87 1.08061186E-08
  1 88 9.80693270E-09
  1 89 8.79964928E-09
  1 90 7.71745793E-09
  1 91 6.48567451E-09
  1 92 5.11869692E-09
  1 93 3.75864174E-09
  1 94 2.63455647E-09
  1 95 1.97090212E-09
  1 96 1.90224979E-09
  1 97 2.44188470E-09
  1 98 3.51386362E-09
  1 99 5.01713126E-09
  1 100 6.87271513E-09
  1 101 1.65365639E-08
  1 102 1.72525201E-08
  1 103 1.77400566E-08
  1 104 1.79616525E-08
  1 105 1.80314184E-08
  1 106 1.80977120E-08
  1 107 1.82278613E-08
  1 108 1.83709562E-08
  1 109 1.84102016E-08
  1 110 1.82517187E-08
  1 111 1.78784112E-08
  1 112 1.73348037E-08
  1 113 1.66688425E-08
  1 114 1.58911146E-08
  1 115 1.49940734E-08
  1 116 1.40186956E-08
  1 117 1.31083995E-08
  1 118 1.24899446E-08
  1 119 1.23720225E-08
  1 120 1.28176448E-08
  1 121 1.36760632E-08
  1 122 1.46281319E-08
  1 123 1.53252584E-08
  1 124 1.55383750E-08
  1 125 1.52266030E-08
  1 126 1.44921038E-08
  1 127 1.34680189E-08
  1 128 1.22317949E-08
  1 129 1.08121581E-08
  1 130 9.28078519E-09
  1 131 7.84601244E-09
  1 132 6.85259931E-09
  1 133 6.65335104E-09
  1 134 7.41489366E-09
  1 135 8.98211798E-09
  1 136 1.09048792E-08
  1 137 1.26340229E-08
  1 138 1.37833436E-08
  1 139 1.43045856E-08
  1 140 1.44706615E-08
  1 141 1.46795978E-08
  1 142 1.52027281E-08
  1 143 1.60327278E-08
  1 144 1.69194791E-08
  1 145 1.75595761E-08
  1 146 1.78090416E-08
  1 147 1.77804418E-08
  1 148 1.77675729E-08
  1 149 1.80560904E-08
  1 150 1.87497708E-08
  1 151 1.97243856E-08
  1 152 2.07302344E-08
  1 153 2.15640698E-08
  1 154 2.21888258E-08
  1 155 2.27210051E-08
  1 156 2.32994806E-08
  1 157 2.39308998E-08
  1 158 2.44219879E-08
  1 159 2.44502814E-08
  1 160 2.37335747E-08
  1 161 2.21951324E-08
  1 162 2.00255575E-08
  1 163 1.76068666E-08
  1 164 1.53456437E-08
  1 165 1.35093530E-08
  1 166 1.21482653E-08
  1 167 1.11290169E-08
  1 168 1.02437924E-08
  1 169 9.32803733E-09
  1 170 8.33105128E-09
  1 171 7.32154813E-09
  1 172 6.44590946E-09
  1 173 5.87058021E-09
  1 174 5.73164346E-09
  1 175 6.09867906E-09
  1 176 6.95164974E-09
  1 177 8.17249574E-09
  1 178 9.55900829E-09
  1 179 1.08664250E-08
  1 180 1.18692796E-08
  1 181 1.24208901E-08
  1 182 1.24834553E-08
  1 183 1.21144248E-08
  1 184 1.14183309E-08
  1 185 1.04925009E-08
  1 186 9.39691575E-09
  1 187 8.16159047E-09
  1 188 6.82064688E-09
  1 189 5.44684143E-09
  1 190 4.16309697E-09
  1 191 3.12505509E-09
  1 192 2.48757279E-09
  1 193 2.37534673E-09
  1 194 2.86974682E-09
  1 195 4.00816261E-09
  1 196 5.78159204E-09
  1 197 8.11932808E-09
  1 198 1.08644836E-08
  1 199 1.37598390E-08
  1 200 1.64678325E-08
  1 201 1.80740888E-08
  1 202 1.77145127E-08
  1 203 1.73694328E-08
  1 204 1.72613282E-08
  1 205 1.74085585E-08
  1 206 1.76649905E-08
  1 207 1.78516994E-08
  1 208 1.78751204E-08
  1 209 1.77516162E-08
  1 210 1.75379047E-08
  1 211 1.72389376E-08
  1 212 1.67774541E-08
  1 213 1.60562476E-08
  1 214 1.50673819E-08
  1 215 1.39605855E-08
  1 216 1.30074364E-08
  1 217 1.24710598E-08
  1 218 1.24597375E-08
  1 219 1.28575638E-08
  1 220 1.33759299E-08
  1 221 1.36918357E-08
  1 222 1.35875628E-08
  1 223 1.30150638E-08
  1 224 1.20670906E-08
  1 225 1.09001002E-08
  1 226 9.67548766E-09
  1 227 8.55349455E-09
  1 228 7.71765751E-09
  1 229 7.37447620E-09
  1 230 7.69162159E-09
  1 231 8.69532183E-09
  1 232 1.01978475E-08
  1 233 1.18256403E-08
  1 234 1.31604117E-08
  1 235 1.39268856E-08
  1 236 1.41184621E-08
  1 237 1.39808206E-08
  1 238 1.38592166E-08
  1 239 1.40021809E-08
  1 240 1.44428368E-08
  1 241 1.50276641E-08
  1 242 1.55644345E-08
  1 243 1.59823023E-08
  1 244 1.63914563E-08
  1 245 1.70013739E-08
  1 246 1.79564643E-08
  1 247 1.92070032E-08
  1 248 2.05106091E-08
  1 249 2.15700132E-08
  1 250 2.22175337E-08
  1 251 2.25208828E-08
  1 252 2.27339813E-08
  1 253 2.31183336E-08
  1 254 2.37475989E-08
  1 255 2.44225222E-08
  1 256 2.47556003E-08
  1 257 2.43788013E-08
  1 258 2.31513218E-08
  1 259 2.12451476E-08
  1 260 1.90612881E-08
  1 261 1.70298777E-08
  1 262 1.54108513E-08
  1 263 1.42030156E-08
  1 264 1.31991174E-08
  1 265 1.21398992E-08
  1 266 1.08719497E-08
  1 267 9.42579060E-09
  1 268 7.98710475E-09
  1 269 6.79602545E-09
  1 270 6.04046469E-09
  1 271 5.79748616E-09
  1 272 6.03728682E-09
  1 273 6.66636082E-09
  1 274 7.57202086E-09
  1 275 8.64273775E-09
  1 276 9.76371776E-09
  1 277 1.08059340E-08
  1 278 1.16286223E-08
  1 279 1.21022942E-08
  1 280 1.21427413E-08
  1 281 1.17375182E-08
  1 282 1.09495531E-08
  1 283 9.89458826E-09
  1 284 8.70267882E-09
  1 285 7.48208283E-09
  1 286 6.30311008E-09
  1 287 5.21030235E-09
  1 288 4.25725268E-09
  1 289 3.54510713E-09
  1 290 3.23972717E-09
  1 291 3.54831352E-09
  1 292 4.65390066E-09
  1 293 6.62888869E-09
  1 294 9.36533488E-09
  1 295 1.25596466E-08
  1 296 1.57696928E-08
  1 297 1.85309453E-08
  1 298 2.04903358E-08
  1 299 2.15065693E-08
  1 300 2.16790125E-08
  1 301 1.67539168E-08
  1 302 1.68150925E-08
  1 303 1.71401502E-08
  1 304 1.75269585E-08
  1 305 1.78621771E-08
  1 306 1.81554696E-08
  1 307 1.84508192E-08
  1 308 1.87005222E-08
  1 309 1.87159170E-08
  1 310 1.82507986E-08
  1 311 1.71715861E-08
  1 312 1.55964087E-08
  1 313 1.38957625E-08
  1 314 1.25347070E-08
  1 315 1.18415504E-08
  1 316 1.18393293E-08
  1 317 1.22398228E-08
  1 318 1.26005863E-08
  1 319 1.25495642E-08
  1 320 1.19501621E-08
  1 321 1.09276403E-08
  1 322 9.76771047E-09
  1 323 8.76856061E-09
  1 324 8.13582776E-09
  1 325 7.96023139E-09
  1 326 8.25274763E-09
  1 327 8.98044716E-09
  1 328 1.00656095E-08
  1 329 1.13590928E-08
  1 330 1.26332675E-08
  1 331 1.36309100E-08
  1 332 1.41611055E-08
  1 333 1.41882213E-08
  1 334 1.38530661E-08
  1 335 1.34053073E-08
  1 336 1.30854619E-08
  1 337 1.30295079E-08
  1 338 1.32524309E-08
  1 339 1.37097356E-08
  1 340 1.43797427E-08
  1 341 1.52963534E-08
  1 342 1.65027633E-08
  1 343 1.79620273E-08
  1 344 1.95013532E-08
  1 345 2.08505299E-08
  1 346 2.17691769E-08
  1 347 2.21878083E-08
  1 348 2.22652199E-08
  1 349 2.23098240E-08
  1 350 2.25989126E-08
  1 351 2.32007002E-08
  1 352 2.39104498E-08
  1 353 2.43465421E-08
  1 354 2.41550772E-08
  1 355 2.32042368E-08
  1 356 2.16551365E-08
  1 357 1.98705750E-08
  1 358 1.82195557E-08
  1 359 1.68938919E-08
  1 360 1.58395613E-08
  1 361 1.48318390E-08
  1 362 1.36378363E-08
  1 363 1.21650649E-08
  1 364 1.05135508E-08
  1 365 8.91442360E-09
  1 366 7.60576412E-09
  1 367 6.72576278E-09
  1 368 6.28081856E-09
  1 369 6.19206653E-09
  1 370 6.37506040E-09
  1 371 6.79341086E-09
  1 372 7.45263181E-09
  1 373 8.34494711E-09
  1 374 9.38942227E-09
  1 375 1.04142648E-08
  1 376 1.12001393E-08
  1 377 1.15639277E-08
  1 378 1.14360231E-08
  1 379 1.08862935E-08
  1 380 1.00824917E-08
  1 381 9.20339465E-09
  1 382 8.35556232E-09
  1 383 7.54224211E-09
  1 384 6.70496461E-09
  1 385 5.81695463E-09
  1 386 4.97465393E-09
  1 387 4.42826737E-09
  1 388 4.51977460E-09
  1 389 5.54527253E-09
  1 390 7.60310883E-09
  1 391 1.05049752E-08
  1 392 1.38025882E-08
  1 393 1.69279461E-08
  1 394 1.93881997E-08
  1 395 2.09277041E-08
  1 396 2.15860185E-08
  1 397 2.16330796E-08
  1 398 2.14227179E-08
  1 399 2.12406826E-08
  1 400 2.12162644E-08
  1 401 1.73168604E-08
  1 402 1.79057960E-08
  1 403 1.85965203E-08
  1 404 1.93755642E-08
  1 405 2.01061960E-08
  1 406 2.04929391E-08
  1 407 2.01921605E-08
  1 408 1.90173570E-08
  1 409 1.71057659E-08
  1 410 1.49205165E-08
  1 411 1.30598061E-08
  1 412 1.19691160E-08
  1 413 1.17211854E-08
  1 414 1.19939864E-08
  1 415 1.22598802E-08
  1 416 1.20742048E-08
  1 417 1.12976692E-08
  1 418 1.01353591E-08
  1 419 8.99067532E-09
  1 420 8.23914056E-09
  1 421 8.05941690E-09
  1 422 8.40415311E-09
  1 423 9.09542996E-09
  1 424 9.95615389E-09
  1 425 1.08842384E-08
  1 426 1.18347406E-08
  1 427 1.27485615E-08
  1 428 1.35019889E-08
  1 429 1.39281275E-08
  1 430 1.39015268E-08
  1 431 1.34273820E-08
  1 432 1.26719170E-08
  1 433 1.19111519E-08
  1 434 1.14289747E-08
  1 435 1.14234834E-08
  1 436 1.19661273E-08
  1 437 1.30167702E-08
  1 438 1.44630133E-08
  1 439 1.61488775E-08
  1 440 1.78840976E-08
  1 441 1.94549877E-08
  1 442 2.06633715E-08
  1 443 2.13946729E-08
  1 444 2.16801922E-08
  1 445 2.17036205E-08
  1 446 2.17259088E-08
  1 447 2.19540768E-08
  1 448 2.24235274E-08
  1 449 2.29662728E-08
  1 450 2.32919239E-08
  1 451 2.31407190E-08
  1 452 2.24217717E-08
  1 453 2.12563537E-08
  1 454 1.99027460E-08
  1 455 1.86104474E-08
  1 456 1.74922239E-08
  1 457 1.64876144E-08
  1 458 1.54321571E-08
  1 459 1.41818195E-08
  1 460 1.27127056E-08
  1 461 1.11383210E-08
  1 462 9.64298304E-09
  1 463 8.38228779E-09
  1 464 7.41694873E-09
  1 465 6.71783438E-09
  1 466 6.22935144E-09
  1 467 5.93991582E-09
  1 468 5.90638485E-09
  1 469 6.21320069E-09
  1 470 6.89290191E-09
  1 471 7.86237472E-09
  1 472 8.92133491E-09
  1 473 9.82156691E-09
  1 474 1.03712908E-08
  1 475 1.05157500E-08
  1 476 1.03468263E-08
  1 477 1.00346281E-08
  1 478 9.71963300E-09
  1 479 9.42889043E-09
  1 480 9.06901346E-09
  1 481 8.50660394E-09
  1 482 7.69529988E-09
  1 483 6.77614864E-09
  1 484 6.08439084E-09
  1 485 6.04101498E-09
  1 486 6.97003533E-09
  1 487 8.92902071E-09
  1 488 1.16433017E-08
  1 489 1.45877712E-08
  1 490 1.71859597E-08
  1 491 1.90334105E-08
  1 492 2.00369201E-08
  1 493 2.04038285E-08
  1 494 2.04942567E-08
  1 495 2.06204154E-08
  1 496 2.09006442E-08
  1 497 2.12390461E-08
  1 498 2.14273549E-08
  1 499 2.12986210E-08
  1 500 2.08411222E-08
  1 501 2.00443080E-08
  1 502 2.10612822E-08
  1 503 2.16224687E-08
  1 504 2.13832606E-08
  1 505 2.01849164E-08
  1 506 1.82000569E-08
  1 507 1.59180688E-08
  1 508 1.39465978E-08
  1 509 1.27245856E-08
  1 510 1.23095477E-08
  1 511 1.23678130E-08
  1 512 1.23782959E-08
  1 513 1.19318682E-08
  1 514 1.09518110E-08
  1 515 9.71232016E-09
  1 516 8.65769836E-09
  1 517 8.14363320E-09
  1 518 8.25937223E-09
  1 519 8.82620838E-09
  1 520 9.54968375E-09
  1 521 1.02092757E-08
  1 522 1.07585726E-08
  1 523 1.12819166E-08
  1 524 1.18560821E-08
  1 525 1.24276968E-08
  1 526 1.28000859E-08
  1 527 1.27433452E-08
  1 528 1.21556619E-08
  1 529 1.11693470E-08
  1 530 1.01312966E-08
  1 531 9.46663922E-09
  1 532 9.50276040E-09
  1 533 1.03470495E-08
  1 534 1.18715259E-08
  1 535 1.37929336E-08
  1 536 1.57907367E-08
  1 537 1.76019602E-08
  1 538 1.90636125E-08
  1 539 2.01116253E-08
  1 540 2.07629832E-08
  1 541 2.10987785E-08
  1 542 2.12456904E-08
  1 543 2.13435187E-08
  1 544 2.14964630E-08
  1 545 2.17262559E-08
  1 546 2.19562227E-08
  1 547 2.20438429E-08
  1 548 2.18505893E-08
  1 549 2.13118265E-08
  1 550 2.04663067E-08
  1 551 1.94285708E-08
  1 552 1.83231106E-08
  1 553 1.72223547E-08
  1 554 1.61256728E-08
  1 555 1.49875533E-08
  1 556 1.37704374E-08
  1 557 1.24837992E-08
  1 558 1.11844693E-08
  1 559 9.94302748E-09
  1 560 8.80541527E-09
  1 561 7.78061533E-09
  1 562 6.86388837E-09
  1 563 6.07668807E-09
  1 564 5.48973690E-09
  1 565 5.20564482E-09
  1 566 5.30541193E-09
  1 567 5.79011482E-09
  1 568 6.55644194E-09
  1 569 7.42675133E-09
  1 570 8.22166647E-09
  1 571 8.83606920E-09
  1 572 9.27470716E-09
  1 573 9.62513173E-09
  1 574 9.98158967E-09
  1 575 1.03635708E-08
  1 576 1.06795012E-08
  1 577 1.07643420E-08
  1 578 1.04796105E-08
  1 579 9.82616484E-09
  1 580 9.00512093E-09
  1 581 8.38134743E-09
  1 582 8.35091416E-09
  1 583 9.16662868E-09
  1 584 1.08061647E-08
  1 585 1.29554973E-08
  1 586 1.51274847E-08
  1 587 1.68659556E-08
  1 588 1.79366949E-08
  1 589 1.84079769E-08
  1 590 1.85784699E-08
  1 591 1.87918821E-08
  1 592 1.92402831E-08
  1 593 1.98643820E-08
  1 594 2.04035143E-08
  1 595 2.05620307E-08
  1 596 2.01930203E-08
  1 597 1.93941982E-08
  1 598 1.84671424E-08
  1 599 1.77737482E-08
  1 600 1.75805648E-08
  1 601 2.15529007E-08
  1 602 2.05086894E-08
  1 603 1.87980621E-08
  1 604 1.68244155E-08
  1 605 1.50702683E-08
  1 606 1.38753954E-08
  1 607 1.32751498E-08
  1 608 1.30017729E-08
  1 609 1.26567026E-08
  1 610 1.19548911E-08
  1 611 1.08940818E-08
  1 612 9.74720342E-09
  1 613 8.88720656E-09
  1 614 8.55879912E-09
  1 615 8.74184000E-09
  1 616 9.18734323E-09
  1 617 9.59235504E-09
  1 618 9.79091152E-09
  1 619 9.83318402E-09
  1 620 9.90517018E-09
  1 621 1.01514034E-08
  1 622 1.05289024E-08
  1 623 1.07988745E-08
  1 624 1.06694674E-08
  1 625 1.00010038E-08
  1 626 8.94160361E-09
  1 627 7.90292908E-09
  1 628 7.38402323E-09
  1 629 7.74204421E-09
  1 630 9.03622033E-09
  1 631 1.10226027E-08
  1 632 1.32873778E-08
  1 633 1.54330017E-08
  1 634 1.72159142E-08
  1 635 1.85787033E-08
  1 636 1.95884731E-08
  1 637 2.03418117E-08
  1 638 2.08995718E-08
  1 639 2.12787695E-08
  1 640 2.14845257E-08
  1 641 2.15423544E-08
  1 642 2.15007787E-08
  1 643 2.14034500E-08
  1 644 2.12549283E-08
  1 645 2.10082220E-08
  1 646 2.05853735E-08
  1 647 1.99192433E-08
  1 648 1.89916242E-08
  1 649 1.78469127E-08
  1 650 1.65764001E-08
  1 651 1.52840546E-08
  1 652 1.40514090E-08
  1 653 1.29157137E-08
  1 654 1.18670632E-08
  1 655 1.08627348E-08
  1 656 9.85283307E-09
  1 657 8.80924040E-09
  1 658 7.74825206E-09
  1 659 6.73700651E-09
  1 660 5.87764767E-09
  1 661 5.27218811E-09
  1 662 4.98197146E-09
  1 663 5.00165343E-09
  1 664 5.26308205E-09
  1 665 5.66975290E-09
  1 666 6.14514744E-09
  1 667 6.66869389E-09
  1 668 7.27799122E-09
  1 669 8.03354443E-09
  1 670 8.96313029E-09
  1 671 1.00155399E-08
  1 672 1.10509258E-08
  1 673 1.18785167E-08
  1 674 1.23300399E-08
  1 675 1.23390198E-08
  1 676 1.19900413E-08
  1 677 1.15109535E-08
  1 678 1.12024542E-08
  1 679 1.13264797E-08
  1 680 1.19969756E-08
  1 681 1.31229103E-08
  1 682 1.44368977E-08
  1 683 1.56062007E-08
  1 684 1.63807890E-08
  1 685 1.67075754E-08
  1 686 1.67489885E-08
  1 687 1.67890588E-08
  1 688 1.70708689E-08
  1 689 1.76517937E-08
  1 690 1.83594905E-08
  1 691 1.88789995E-08
  1 692 1.89269161E-08
  1 693 1.84162084E-08
  1 694 1.75184382E-08
  1 695 1.65894298E-08
  1 696 1.60045501E-08
  1 697 1.60006444E-08
  1 698 1.66108932E-08
  1 699 1.77139771E-08
  1 700 1.91437721E-08
  1 701 1.77274912E-08
  1 702 1.63601411E-08
  1 703 1.52108242E-08
  1 704 1.43444088E-08
  1 705 1.36588595E-08
  1 706 1.29705344E-08
  1 707 1.21518794E-08
  1 708 1.12302201E-08
  1 709 1.03778971E-08
  1 710 9.79665509E-09
  1 711 9.57372305E-09
  1 712 9.61022485E-09
  1 713 9.67561929E-09
  1 714 9.55513322E-09
  1 715 9.19034461E-09
  1 716 8.71393554E-09
  1 717 8.34997901E-09
  1 718 8.24430715E-09
  1 719 8.34169134E-09
  1 720 8.40044655E-09
  1 721 8.14596856E-09
  1 722 7.47091853E-09
  1 723 6.55367966E-09
  1 724 5.81311875E-09
  1 725 5.71738850E-09
  1 726 6.55387897E-09
  1 727 8.29031619E-09
  1 728 1.06007463E-08
  1 729 1.30322308E-08
  1 730 1.52102667E-08
  1 731 1.69690287E-08
  1 732 1.83485636E-08
  1 733 1.94850946E-08
  1 734 2.04789358E-08
  1 735 2.13244223E-08
  1 736 2.19344734E-08
  1 737 2.22270715E-08
  1 738 2.22045333E-08
  1 739 2.19686847E-08
  1 740 2.16629695E-08
  1 741 2.13821322E-08
  1 742 2.11098948E-08
  1 743 2.07252249E-08
  1 744 2.00738920E-08
  1 745 1.90625983E-08
  1 746 1.77210771E-08
  1 747 1.61978020E-08
  1 748 1.46932337E-08
  1 749 1.33682137E-08
  1 750 1.22764846E-08
  1 751 1.13552398E-08
  1 752 1.04758741E-08
  1 753 9.52590695E-09
  1 754 8.47794653E-09
  1 755 7.40944258E-09
  1 756 6.46340361E-09
  1 757 5.77182377E-09
  1 758 5.38411182E-09
  1 759 5.24115083E-09
  1 760 5.21158309E-09
  1 761 5.17242796E-09
  1 762 5.08983332E-09
  1 763 5.05306884E-09
  1 764 5.23877133E-09
  1 765 5.82064210E-09
  1 766 6.87091667E-09
  1 767 8.30588442E-09
  1 768 9.90477206E-09
  1 769 1.13925886E-08
  1 770 1.25452353E-08
  1 771 1.32668993E-08
  1 772 1.36080389E-08
  1 773 1.37241791E-08
  1 774 1.38021443E-08
  1 775 1.39884804E-08
  1 776 1.43450553E-08
  1 777 1.48398876E-08
  1 778 1.53685449E-08
  1 779 1.57968070E-08
  1 780 1.60142304E-08
  1 781 1.59847786E-08
  1 782 1.57749890E-08
  1 783 1.55399707E-08
  1 784 1.54610088E-08
  1 785 1.56545210E-08
  1 786 1.60964904E-08
  1 787 1.66100399E-08
  1 788 1.69367925E-08
  1 789 1.68656622E-08
  1 790 1.63535326E-08
  1 791 1.55687433E-08
  1 792 1.48279156E-08
  1 793 1.44580461E-08
  1 794 1.46603676E-08
  1 795 1.54497662E-08
  1 796 1.66935817E-08
  1 797 1.82091588E-08
  1 798 1.98449360E-08
  1 799 2.14900143E-08
  1 800 2.30182534E-08
  1 801 1.53318325E-08
  1 802 1.42386672E-08
  1 803 1.33253086E-08
  1 804 1.25928036E-08
  1 805 1.20240599E-08
  1 806 1.16100371E-08
  1 807 1.13355990E-08
  1 808 1.11427168E-08
  1 809 1.09149198E-08
  1 810 1.05143857E-08
  1 811 9.85962952E-09
  1 812 8.99131946E-09
  1 813 8.07057421E-09
  1 814 7.29571746E-09
  1 815 6.78289178E-09
  1 816 6.48984058E-09
  1 817 6.24234327E-09
  1 818 5.85808718E-09
  1 819 5.29506328E-09
  1 820 4.72777584E-09
  1 821 4.49382700E-09
  1 822 4.93280131E-09
  1 823 6.20807332E-09
  1 824 8.21528755E-09
  1 825 1.06297760E-08
  1 826 1.30619357E-08
  1 827 1.52274772E-08
  1 828 1.70366578E-08
  1 829 1.85623476E-08
  1 830 1.99231690E-08
  1 831 2.11659561E-08
  1 832 2.22231490E-08
  1 833 2.29649042E-08
  1 834 2.33015629E-08
  1 835 2.32612962E-08
  1 836 2.29878904E-08
  1 837 2.26587888E-08
  1 838 2.23764273E-08
  1 839 2.21030326E-08
  1 840 2.16812138E-08
  1 841 2.09291557E-08
  1 842 1.97538995E-08
  1 843 1.82160855E-08
  1 844 1.65091000E-08
  1 845 1.48657750E-08
  1 846 1.34467930E-08
  1 847 1.22738080E-08
  1 848 1.12433012E-08
  1 849 1.02106412E-08
  1 850 9.09407279E-09
  1 851 7.93726443E-09
  1 852 6.89259530E-09
  1 853 6.13276795E-09
  1 854 5.74079044E-09
  1 855 5.64397738E-09
  1 856 5.63623948E-09
  1 857 5.48449659E-09
  1 858 5.06542167E-09
  1 859 4.45636214E-09
  1 860 3.92414801E-09
  1 861 3.80917443E-09
  1 862 4.36082087E-09
  1 863 5.61019047E-09
  1 864 7.34849661E-09
  1 865 9.22259940E-09
  1 866 1.08952383E-08
  1 867 1.21835767E-08
  1 868 1.31054716E-08
  1 869 1.38182270E-08
  1 870 1.44955200E-08
  1 871 1.52182889E-08
  1 872 1.59385705E-08
  1 873 1.65254082E-08
  1 874 1.68526049E-08
  1 875 1.68698876E-08
  1 876 1.66197674E-08
  1 877 1.62034259E-08
  1 878 1.57300674E-08
  1 879 1.52853515E-08
  1 880 1.49295459E-08
  1 881 1.47078523E-08
  1 882 1.46475002E-08
  1 883 1.47343313E-08
  1 884 1.48892702E-08
  1 885 1.49770241E-08
  1 886 1.48620539E-08
  1 887 1.44905084E-08
  1 888 1.39489062E-08
  1 889 1.34549611E-08
  1 890 1.32743163E-08
  1 891 1.36044927E-08
  1 892 1.44904370E-08
  1 893 1.58168435E-08
  1 894 1.73731531E-08
  1 895 1.89424192E-08
  1 896 2.03570261E-08
  1 897 2.14977516E-08
  1 898 2.22614946E-08
  1 899 2.25483347E-08
  1 900 2.22989465E-08
  1 901 1.32136020E-08
  1 902 1.31061027E-08
  1 903 1.31578674E-08
  1 904 1.31606059E-08
  1 905 1.29659155E-08
  1 906 1.24948129E-08
  1 907 1.17268696E-08
  1 908 1.06941710E-08
  1 909 9.48272699E-09
  1 910 8.22384857E-09
  1 911 7.06023170E-09
  1 912 6.09463032E-09
  1 913 5.35215125E-09
  1 914 4.78774632E-09
  1 915 4.34333344E-09
  1 916 4.02206766E-09
  1 917 3.92869374E-09
  1 918 4.24142836E-09
  1 919 5.12413859E-09
  1 920 6.62892061E-09
  1 921 8.64933499E-09
  1 922 1.09549606E-08
  1 923 1.32874077E-08
  1 924 1.54600574E-08
  1 925 1.74037592E-08
  1 926 1.91380248E-08
  1 927 2.06962344E-08
  1 928 2.20610983E-08
  1 929 2.31553167E-08
  1 930 2.38911289E-08
  1 931 2.42401825E-08
  1 932 2.42706165E-08
  1 933 2.41206699E-08
  1 934 2.39216894E-08
  1 935 2.37186359E-08
  1 936 2.34397986E-08
  1 937 2.29373316E-08
  1 938 2.20760950E-08
  1 939 2.08181888E-08
  1 940 1.92530220E-08
  1 941 1.75556600E-08
  1 942 1.58990643E-08
  1 943 1.43728747E-08
  1 944 1.29569103E-08
  1 945 1.15646257E-08
  1 946 1.01296561E-08
  1 947 8.68159472E-09
  1 948 7.36104338E-09
  1 949 6.35755999E-09
  1 950 5.79968162E-09
  1 951 5.65855500E-09
  1 952 5.72637071E-09
  1 953 5.69491245E-09
  1 954 5.30489016E-09
  1 955 4.49246057E-09
  1 956 3.45190795E-09
  1 957 2.57118012E-09
  1 958 2.26298159E-09
  1 959 2.77324171E-09
  1 960 4.06628342E-09
  1 961 5.84851466E-09
  1 962 7.71808413E-09
  1 963 9.35815461E-09
  1 964 1.06675094E-08
  1 965 1.17597307E-08
  1 966 1.28399744E-08
  1 967 1.40398975E-08
  1 968 1.53129822E-08
  1 969 1.64513559E-08
  1 970 1.72076575E-08
  1 971 1.74409818E-08
  1 972 1.71949757E-08
  1 973 1.66640914E-08
  1 974 1.60776405E-08
  1 975 1.55814446E-08
  1 976 1.51914382E-08
  1 977 1.48388964E-08
  1 978 1.44627132E-08
  1 979 1.40753020E-08
  1 980 1.37540908E-08
  1 981 1.35701424E-08
  1 982 1.35149249E-08
  1 983 1.34891932E-08
  1 984 1.33718237E-08
  1 985 1.31246497E-08
  1 986 1.28571834E-08
  1 987 1.27971641E-08
  1 988 1.31750503E-08
  1 989 1.40898832E-08
  1 990 1.54389759E-08
  1 991 1.69541857E-08
  1 992 1.83207607E-08
  1 993 1.93065994E-08
  1 994 1.98313287E-08
  1 995 1.99509668E-08
  1 996 1.97892522E-08
  1 997 1.94715653E-08
  1 998 1.90978825E-08
  1 999 1.87481076E-08
  1 1000 1.84842689E-08
  1 1001 1.47387199E-08
  1 1002 1.45767654E-08
  1 1003 1.40058965E-08
  1 1004 1.30886914E-08
  1 1005 1.19055818E-08
  1 1006 1.05267741E-08
  1 1007 9.02691599E-09
  1 1008 7.51046949E-09
  1 1009 6.11386634E-09
  1 1010 4.97587309E-09
  1 1011 4.19659475E-09
  1 1012 3.81527891E-09
  1 1013 3.82200161E-09
  1 1014 4.19227211E-09
  1 1015 4.91738477E-09
  1 1016 6.00848044E-09
  1 1017 7.47326556E-09
  1 1018 9.28436353E-09
  1 1019 1.13627842E-08
  1 1020 1.35873132E-08
  1 1021 1.58219464E-08
  1 1022 1.79432421E-08
  1 1023 1.98540316E-08
  1 1024 2.14836108E-08
  1 1025 2.27850779E-08
  1 1026 2.37393755E-08
  1 1027 2.43646864E-08
  1 1028 2.47194099E-08
  1 1029 2.48869947E-08
  1 1030 2.49428350E-08
  1 1031 2.49186357E-08
  1 1032 2.47859587E-08
  1 1033 2.44718311E-08
  1 1034 2.39000380E-08
  1 1035 2.30347905E-08
  1 1036 2.19007046E-08
  1 1037 2.05671066E-08
  1 1038 1.91070420E-08
  1 1039 1.75578734E-08
  1 1040 1.59103940E-08
  1 1041 1.41364681E-08
  1 1042 1.22410626E-08
  1 1043 1.03071479E-08
  1 1044 8.50165846E-09
  1 1045 7.02873699E-09
  1 1046 6.04452063E-09
  1 1047 5.57192719E-09
  1 1048 5.46129841E-09
  1 1049 5.42726553E-09
  1 1050 5.15822043E-09
  1 1051 4.45672395E-09
  1 1052 3.34625194E-09
  1 1053 2.08681934E-09
  1 1054 1.08076599E-09
  1 1055 7.04479740E-10
  1 1056 1.14422428E-09
  1 1057 2.31880887E-09
  1 1058 3.93101979E-09
  1 1059 5.62194159E-09
  1 1060 7.14459152E-09
  1 1061 8.46079538E-09
  1 1062 9.70874342E-09
  1 1063 1.10651169E-08
  1 1064 1.25896284E-08
  1 1065 1.41508075E-08
  1 1066 1.54809750E-08
  1 1067 1.63261060E-08
  1 1068 1.65948325E-08
  1 1069 1.64106428E-08
  1 1070 1.60337916E-08
  1 1071 1.57043956E-08
  1 1072 1.55095441E-08
  1 1073 1.53602197E-08
  1 1074 1.50891964E-08
  1 1075 1.45989414E-08
  1 1076 1.39549287E-08
  1 1077 1.33582645E-08
  1 1078 1.30163155E-08
  1 1079 1.30027742E-08
  1 1080 1.32082631E-08
  1 1081 1.34210601E-08
  1 1082 1.34862077E-08
  1 1083 1.34331973E-08
  1 1084 1.34789802E-08
  1 1085 1.38948641E-08
  1 1086 1.48184280E-08
  1 1087 1.61322188E-08
  1 1088 1.74915750E-08
  1 1089 1.84901398E-08
  1 1090 1.88653648E-08
  1 1091 1.86235201E-08
  1 1092 1.80170280E-08
  1 1093 1.73985673E-08
  1 1094 1.70454971E-08
  1 1095 1.70527950E-08
  1 1096 1.73367947E-08
  1 1097 1.77192968E-08
  1 1098 1.80223591E-08
  1 1099 1.81193493E-08
  1 1100 1.79372109E-08
  1 1101 1.43121737E-08
  1 1102 1.31728944E-08
  1 1103 1.17540862E-08
  1 1104 1.00932060E-08
  1 1105 8.30623038E-09
  1 1106 6.60588490E-09
  1 1107 5.24817063E-09
  1 1108 4.43505460E-09
  1 1109 4.23349067E-09
  1 1110 4.56168132E-09
  1 1111 5.25108350E-09
  1 1112 6.14634035E-09
  1 1113 7.18441408E-09
  1 1114 8.40961134E-09
  1 1115 9.92066374E-09
  1 1116 1.17843102E-08
  1 1117 1.39654050E-08
  1 1118 1.63106028E-08
  1 1119 1.85918002E-08
  1 1120 2.05851742E-08
  1 1121 2.21468166E-08
  1 1122 2.32513056E-08
  1 1123 2.39795015E-08
  1 1124 2.44655360E-08
  1 1125 2.48299005E-08
  1 1126 2.51294469E-08
  1 1127 2.53452837E-08
  1 1128 2.54105750E-08
  1 1129 2.52605470E-08
  1 1130 2.48759504E-08
  1 1131 2.42949340E-08
  1 1132 2.35859046E-08
  1 1133 2.27967789E-08
  1 1134 2.19114124E-08
  1 1135 2.08423010E-08
  1 1136 1.94696311E-08
  1 1137 1.77104865E-08
  1 1138 1.55834408E-08
  1 1139 1.32337077E-08
  1 1140 1.09026347E-08
  1 1141 8.85215739E-09
  1 1142 7.27556575E-09
  1 1143 6.23090547E-09
  1 1144 5.62234346E-09
  1 1145 5.23537287E-09
  1 1146 4.81306149E-09
  1 1147 4.14833640E-09
  1 1148 3.16268192E-09
  1 1149 1.94403742E-09
  1 1150 7.26583501E-10
  1 1151 1.86778670E-10
  1 1152 5.35057363E-10
  1 1153 1.99337991E-10
  1 1154 7.53730589E-10
  1 1155 2.10973521E-09
  1 1156 3.61039780E-09
  1 1157 5.07076253E-09
  1 1158 6.44552441E-09
  1 1159 7.80690425E-09
  1 1160 9.24903850E-09
  1 1161 1.07811038E-08
  1 1162 1.22814120E-08
  1 1163 1.35472423E-08
  1 1164 1.44115541E-08
  1 1165 1.48494660E-08
  1 1166 1.49991208E-08
  1 1167 1.50759691E-08
  1 1168 1.52325650E-08
  1 1169 1.54578353E-08
  1 1170 1.55887436E-08
  1 1171 1.54335635E-08
  1 1172 1.49276524E-08
  1 1173 1.42143365E-08
  1 1174 1.35884131E-08
  1 1175 1.33311250E-08
  1 1176 1.35423678E-08
  1 1177 1.40839419E-08
  1 1178 1.46774056E-08
  1 1179 1.50960053E-08
  1 1180 1.53224852E-08
  1 1181 1.55617307E-08
  1 1182 1.60913949E-08
  1 1183 1.70439147E-08
  1 1184 1.82653881E-08
  1 1185 1.93533126E-08
  1 1186 1.98621870E-08
  1 1187 1.95565988E-08
  1 1188 1.85575416E-08
  1 1189 1.72919329E-08
  1 1190 1.62758497E-08
  1 1191 1.58609166E-08
  1 1192 1.60884522E-08
  1 1193 1.67216480E-08
  1 1194 1.74145546E-08
  1 1195 1.79013462E-08
  1 1196 1.80948927E-08
  1 1197 1.80581698E-08
  1 1198 1.78988651E-08
  1 1199 1.76771555E-08
  1 1200 1.73878201E-08
  1 1201 1.11363574E-08
  1 1202 9.22733328E-09
  1 1203 7.44372173E-09
  1 1204 6.10772048E-09
  1 1205 5.43868945E-09
  1 1206 5.45804275E-09
  1 1207 5.99149594E-09
  1 1208 6.77275855E-09
  1 1209 7.59186451E-09
  1 1210 8.40439670E-09
  1 1211 9.34067905E-09
  1 1212 1.06117556E-08
  1 1213 1.23668928E-08
  1 1214 1.45824799E-08
  1 1215 1.70422721E-08
  1 1216 1.94175309E-08
  1 1217 2.14025296E-08
  1 1218 2.28344125E-08
  1 1219 2.37385390E-08
  1 1220 2.42822201E-08
  1 1221 2.46676861E-08
  1 1222 2.50242402E-08
  1 1223 2.53558918E-08
  1 1224 2.55676433E-08
  1 1225 2.55492796E-08
  1 1226 2.52637941E-08
  1 1227 2.47856457E-08
  1 1228 2.42633342E-08
  1 1229 2.38255809E-08
  1 1230 2.34856481E-08
  1 1231 2.31031448E-08
  1 1232 2.24327423E-08
  1 1233 2.12403731E-08
  1 1234 1.94275222E-08
  1 1235 1.70969095E-08
  1 1236 1.45233399E-08
  1 1237 1.20445186E-08
  1 1238 9.92855361E-09
  1 1239 8.28379219E-09
  1 1240 7.04901861E-09
  1 1241 6.05643540E-09
  1 1242 5.12438215E-09
  1 1243 4.13084089E-09
  1 1244 3.04135789E-09
  1 1245 1.89704547E-09
  1 1246 7.87381596E-10
  1 1247 1.71348154E-10
  1 1248 8.49599101E-10
  1 1249 1.12232037E-09
  1 1250 9.00521871E-10
  1 1251 1.69073826E-10
  1 1252 9.92471015E-10
  1 1253 2.42715324E-09
  1 1254 3.95518287E-09
  1 1255 5.43832803E-09
  1 1256 6.81643793E-09
  1 1257 8.09518147E-09
  1 1258 9.29770169E-09
  1 1259 1.04187849E-08
  1 1260 1.14175336E-08
  1 1261 1.22533721E-08
  1 1262 1.29331948E-08
  1 1263 1.35241165E-08
  1 1264 1.41101211E-08
  1 1265 1.47169535E-08
  1 1266 1.52631683E-08
  1 1267 1.55870670E-08
  1 1268 1.55491817E-08
  1 1269 1.51506760E-08
  1 1270 1.45838518E-08
  1 1271 1.41654339E-08
  1 1272 1.41790295E-08
  1 1273 1.47200424E-08
  1 1274 1.56450807E-08
  1 1275 1.66660949E-08
  1 1276 1.75340773E-08
  1 1277 1.81922837E-08
  1 1278 1.87924856E-08
  1 1279 1.95561279E-08
  1 1280 2.05692818E-08
  1 1281 2.16530898E-08
  1 1282 2.24101852E-08
  1 1283 2.24349921E-08
  1 1284 2.15644809E-08
  1 1285 2.00109029E-08
  1 1286 1.82856953E-08
  1 1287 1.69525733E-08
  1 1288 1.63546131E-08
  1 1289 1.64751855E-08