# File generated by Flopy version 3.5.0 on 02/29/2024 at 16:16:49.
BEGIN griddata
  strt
    INTERNAL  FACTOR  1.0
        15.00000000      15.00000000      15.00000000      15.00000000      15.00000000      15.00000000      15.00000000      15.00000000      15.00000000      15.00000000      15.00000000      15.00000000      15.00000000      15.00000000      15.00000000      15.00000000      15.00000000      15.00000000      15.00000000      15.00000000
        15.00000000      15.00000000      15.00000000      15.00000000      15.00000000      15.00000000      15.00000000      15.00000000      15.00000000      15.00000000      15.00000000      15.00000000      15.00000000      15.00000000      15.00000000      15.00000000      15.00000000      15.00000000      15.00000000      15.00000000
        15.00000000      15.00000000      15.00000000      15.00000000      15.00000000      15.00000000      15.00000000      15.00000000      15.00000000      15.00000000      15.00000000      15.00000000      15.00000000      15.00000000      15.00000000      15.00000000      15.00000000      15.00000000      15.00000000      15.00000000
        15.00000000      15.00000000      15.00000000      15.00000000      15.00000000      15.00000000      15.00000000      15.00000000      15.00000000      15.00000000      15.00000000      15.00000000      15.00000000      15.00000000      15.00000000      15.00000000      15.00000000      15.00000000      15.00000000      15.00000000
        15.00000000      15.00000000      15.00000000      15.00000000      15.00000000      15.00000000      15.00000000      15.00000000      15.00000000      15.00000000      15.00000000      15.00000000      15.00000000      15.00000000      15.00000000      15.00000000      15.00000000      15.00000000      15.00000000      15.00000000
        15.10681393      15.12972444      15.12877730      15.10807021      15.07483353      15.04826620      15.05840439      15.05072652      15.05448392      15.08617430      15.10043876      15.10083332      15.09115181      15.06967315      15.07361340      15.06753167      15.06545869      15.07462415      15.07340021      15.06933697
        15.04615075      15.02182064      15.01985314      15.02273182      15.02211410      15.02143984      15.02591766      15.03104607      15.04336952      15.04081661      15.02243916      15.01967902      15.02691084      15.02387491      15.02106198      15.00833576      15.00464749      15.00873345      15.01052516      15.01034130
        15.01394441      15.02209302      15.03088150      15.03840859      15.04126295      15.05948469      15.05900563      15.06240954      15.07155466      15.07655534      15.05936457      15.05899591      15.05337077      15.03997757      15.04553840      15.03409676      15.02754689      15.03983592      15.04326463      15.03494540
        15.02874903      15.02877348      15.03873079      15.04395988      15.04377840      15.04237639      15.04794943      15.05788291      15.05747202      15.05057027      15.03960615      15.04696528      15.04715126      15.03964564      15.03940036      15.04161917      15.04294731      15.05089700      15.04437259      15.04275615
        15.04652532      15.03610094      15.04449590      15.03769463      15.03045783      15.02986635      15.03387550      15.03787970      15.05183062      15.05700373      15.05480765      15.06147920      15.06570917      15.08883771      15.09885453      15.06977967      15.03393071      15.04151313      15.05109243      15.04753520
        15.20561470      15.22010333      15.22699042      15.20011013      15.14874218      15.11014658      15.11348280      15.10925191      15.10880276      15.14113494      15.16047889      15.17466421      15.16907866      15.14813942      15.14530725      15.14464697      15.12536337      15.12227360      15.12527062      15.11361358
        15.08772950      15.04520285      15.03742982      15.03982273      15.04193580      15.04108909      15.04754836      15.05502077      15.06655600      15.06956601      15.05296121      15.04176283      15.04766653      15.05081389      15.05042122      15.03144857      15.01557899      15.02158838      15.02713516      15.02940627
        15.03454303      15.04294299      15.05418455      15.07081033      15.07679432      15.08905910      15.10036687      15.10839420      15.12409856      15.13205624      15.11694642      15.10349785      15.11424776      15.09505618      15.08936676      15.07608856      15.06252713      15.06971228      15.07509915      15.07515453
        15.06003062      15.06014591      15.06984956      15.07890208      15.08031064      15.08162921      15.08328607      15.08876031      15.09511824      15.09842524      15.08691491      15.08563197      15.09408057      15.08064649      15.07414502      15.07614901      15.07956682      15.08557896      15.08376127      15.07726202
        15.07589815      15.06871877      15.06864150      15.06978690      15.05599679      15.05543761      15.06492188      15.07305062      15.08938118      15.10545172      15.11471346      15.12163664      15.12938063      15.13498478      15.15835181      15.14683048      15.09166648      15.08059467      15.09464777      15.09617326
        15.35065948      15.31318162      15.30244906      15.27706987      15.22591615      15.17577345      15.16101334      15.16660138      15.16434935      15.18265482      15.20526976      15.22389696      15.22193309      15.21049017      15.20354379      15.21047347      15.18840547      15.17769043      15.17317278      15.15380310
        15.12689453      15.06984411      15.05653342      15.05590198      15.05921494      15.05973655      15.06497901      15.07089543      15.07792998      15.08203856      15.07813073      15.06790492      15.07049647      15.08354657      15.08449562      15.06769129      15.03820225      15.03988090      15.04786334      15.05433308
        15.06173641      15.06904596      15.07971399      15.09800296      15.10466486      15.11088394      15.12442661      15.13888222      15.15711107      15.16995027      15.16866845      15.15491713      15.16647142      15.15848745      15.13679315      15.12718580      15.10274530      15.10004550      15.11205101      15.11325588
        15.09798875      15.09385499      15.09481641      15.10752548      15.11678246      15.11565521      15.11117463      15.11581258      15.12166987      15.12872557      15.13007032      15.12651907      15.13079695      15.11967991      15.11050744      15.10509019      15.10894068      15.10796183      15.11145464      15.10378455
        15.10397787      15.09967750      15.09404182      15.11287303      15.10078936      15.08703189      15.09591202      15.10786747      15.12139211      15.14373331      15.16037209      15.17210288      15.18138006      15.18349102      15.19618458      15.19930886      15.16421836      15.12833458      15.13253267      15.13390520
        15.48713118      15.41996126      15.36317540      15.34078590      15.29413736      15.24824642      15.21904738      15.21080098      15.21010302      15.22457139      15.24365782      15.25664376      15.26182477      15.25744695      15.24843411      15.25873219      15.24534885      15.23322942      15.22313985      15.19678699
        15.15698829      15.10618254      15.07998207      15.07109753      15.07601333      15.07840334      15.08150144      15.08228615      15.08690318      15.08993483      15.09427729      15.09669511      15.10012048      15.11389571      15.11998302      15.11202094      15.07663237      15.06821931      15.07332569      15.08494306
        15.09041491      15.10355444      15.10893433      15.11919897      15.13427602      15.14006924      15.14743976      15.16895920      15.18548349      15.19416447      15.20685297      15.20528737      15.20269847      15.21419022      15.20225776      15.18780729      15.15493519      15.14074254      15.15081379      15.14997001
        15.13786117      15.12708762      15.12093055      15.13196340      15.14544867      15.14097517      15.13706217      15.14127182      15.14367908      15.15005086      15.16098788      15.16084104      15.16134991      15.15113735      15.14007591      15.13482838      15.13519969      15.13328988      15.13759145      15.13420236
        15.13877105      15.14273301      15.14066261      15.16052717      15.15999072      15.13801156      15.12865564      15.13829900      15.15151752      15.17324794      15.18638791      15.19921161      15.20976214      15.21352274      15.21802732      15.22994011      15.22652063      15.19853236      15.18564971      15.18147696
        15.54183656      15.50955909      15.43803703      15.39920812      15.35323964      15.32048563      15.28923461      15.25384846      15.24820129      15.25664347      15.27080748      15.28071526      15.29184836      15.29407980      15.29088556      15.29149388      15.28959937      15.27610220      15.27266627      15.24412545
        15.20215313      15.15433726      15.11319165      15.09244139      15.09348171      15.09752097      15.09914296      15.09480434      15.09398299      15.09719971      15.10527468      15.12045638      15.12904082      15.14110995      15.15207802      15.15126108      15.12690958      15.11023205      15.11303456      15.12609115
        15.12850189      15.14374713      15.14233192      15.14368694      15.16238896      15.17511811      15.18383874      15.20500508      15.21283465      15.21915803      15.23593917      15.25062193      15.24359424      15.25670029      15.25851590      15.24993411      15.22158194      15.18467753      15.18158434      15.18468311
        15.17447010      15.16106955      15.15064031      15.15694220      15.17263814      15.16862158      15.15873858      15.16191392      15.16598638      15.17309938      15.18350781      15.19067796      15.19466037      15.18762063      15.16958270      15.16047849      15.15637602      15.15992704      15.16442230      15.17069034
        15.17931211      15.19888841      15.19819294      15.19432278      15.20937139      15.19491945      15.16900685      15.16963084      15.18201555      15.19976763      15.20970415      15.21932016      15.23075694      15.23241560      15.24057149      15.25366994      15.26644370      15.26707458      15.25553782      15.24907320
        15.56252670      15.55753058      15.50382210      15.43937516      15.39576246      15.37144660      15.35205990      15.31410829      15.28272417      15.28339815      15.29358680      15.30261838      15.31188518      15.31685145      15.31832266      15.31402584      15.32792517      15.32130825      15.32622709      15.30891297
        15.26763626      15.21187996      15.16181515      15.12985111      15.12104939      15.12954326      15.12849330      15.11768420      15.10491272      15.10861252      15.11982864      15.14119915      15.15710586      15.17328642      15.18042708      15.18190321      15.17347724      15.15421018      15.15616916      15.16334873
        15.16754282      15.17226911      15.18052831      15.18045233      15.19841711      15.21602273      15.23143215      15.24399281      15.24924821      15.25303489      15.26692653      15.29581821      15.30147335      15.30066102      15.29933497      15.30165144      15.27948596      15.23162981      15.20774786      15.20972503
        15.20686926      15.20149332      15.18655719      15.18576806      15.20060270      15.19695422      15.18117598      15.17926788      15.18642197      15.19125156      15.19998788      15.21151319      15.21935273      15.22508864      15.21547589      15.19231434      15.18138052      15.19573275      15.20148265      15.21757465
        15.23225321      15.26001730      15.26422247      15.24966821      15.26044280      15.25027656      15.22254956      15.20826080      15.21302876      15.22180768      15.23370907      15.24122750      15.24850203      15.25347601      15.26386512      15.27841746      15.29765517      15.31048106      15.30849256      15.31702372
        15.57201662      15.57433506      15.55038633      15.48364592      15.42634807      15.40034632      15.38603199      15.36403832      15.32158573      15.30933024      15.31350372      15.32099829      15.33128857      15.34036427      15.34308266      15.34326798      15.36008153      15.35997123      15.35876170      15.35783445
        15.33598561      15.29001576      15.23747351      15.18654888      15.16885633      15.17836653      15.17537122      15.15491181      15.12952874      15.12842414      15.14119862      15.16481012      15.18599243      15.20682880      15.20919513      15.21549024      15.21769639      15.20299841      15.19788646      15.19709232
        15.20387872      15.20400598      15.21935315      15.22653065      15.24630912      15.26947558      15.28212917      15.29184125      15.29605676      15.29796699      15.31565766      15.34152780      15.35906321      15.35274971      15.33957218      15.33841656      15.31736590      15.26980244      15.23034536      15.22777026
        15.23353290      15.24010631      15.22606308      15.21780458      15.22649770      15.22401138      15.20862912      15.19985654      15.20539001      15.20984353      15.21915871      15.23024325      15.24540004      15.26253211      15.28498383      15.27201250      15.23635236      15.24758688      15.25712390      15.27871065
        15.29060303      15.30685411      15.31585453      15.30908954      15.30314109      15.30258579      15.27740386      15.25430638      15.25159352      15.24666825      15.25862975      15.26658396      15.27437260      15.28203241      15.29279890      15.31049986      15.33070914      15.34156796      15.35422283      15.37604003
        15.57739501      15.58136300      15.57698302      15.52887476      15.45996476      15.42795380      15.41225085      15.39855284      15.36102803      15.33410609      15.33479871      15.33996328      15.35341606      15.36610997      15.37049455      15.37148889      15.38135327      15.38620648      15.38572576      15.38826811
        15.38180703      15.35112385      15.30048707      15.24940452      15.22189077      15.22767678      15.22908055      15.21584291      15.18391895      15.17404284      15.18575674      15.21028814      15.22596389      15.24165357      15.24432507      15.24686917      15.25609030      15.25236031      15.24101812      15.23239548
        15.24108648      15.24249646      15.25077125      15.27009882      15.29457969      15.32080255      15.33973009      15.35079435      15.34956342      15.35834211      15.37952598      15.38584329      15.40032013      15.40201068      15.38472621      15.36652175      15.34211134      15.29233456      15.25321807      15.24609819
        15.25751584      15.27103215      15.27429851      15.25531846      15.25036936      15.24748433      15.23597998      15.22595827      15.22598460      15.23569251      15.24364422      15.26103319      15.28481024      15.30695823      15.34499491      15.35361883      15.31798810      15.30191050      15.32294192      15.34599884
        15.35207974      15.34500335      15.35242465      15.35359903      15.34631132      15.35369180      15.32994524      15.30136974      15.29658173      15.28763031      15.28709547      15.29967714      15.30789696      15.32324369      15.33819686      15.35335481      15.36686997      15.38152856      15.40312910      15.43472033
        15.58523314      15.58991960      15.59215720      15.56714644      15.50543017      15.45668099      15.43669913      15.42390382      15.39665163      15.36105452      15.36040872      15.36268579      15.37407616      15.38971687      15.39644740      15.39526304      15.39334387      15.39769770      15.39652876      15.39415510
        15.39983753      15.41048641      15.36792181      15.32548203      15.27420805      15.27430353      15.27486615      15.28073377      15.26031313      15.24667602      15.25852121      15.27158407      15.28095090      15.28154351      15.28092739      15.27603866      15.28372481      15.28811085      15.27902098      15.27097826
        15.27684334      15.28402878      15.29017523      15.31135661      15.33395846      15.36760178      15.39903608      15.40620151      15.40785136      15.42184379      15.43811885      15.44107611      15.43081437      15.43536045      15.43082273      15.41139055      15.37815002      15.31352815      15.26348140      15.25411212
        15.27508209      15.29742365      15.31736538      15.30397414      15.28708737      15.27426287      15.26123821      15.25616572      15.25506538      15.26579589      15.27821939      15.31043936      15.34067489      15.37644991      15.41539713      15.42691071      15.40866092      15.37748555      15.38696470      15.40665086
        15.41737047      15.39560179      15.38662429      15.38480402      15.38767418      15.38999464      15.38116608      15.34632195      15.33262997      15.33449394      15.33446002      15.34190890      15.34270164      15.36870202      15.38853310      15.39976167      15.40928003      15.42783537      15.45124042      15.49135236
        15.59731500      15.60129609      15.60754284      15.59721108      15.55397781      15.49854688      15.46609403      15.44805530      15.42928114      15.39746765      15.38663224      15.38811390      15.39830285      15.40972253      15.41465465      15.41366698      15.40649889      15.40479794      15.39964348      15.38963803
        15.40228135      15.44756321      15.41562681      15.37383183      15.32231688      15.31929476      15.31892682      15.32871753      15.32654048      15.31861292      15.32284358      15.32223258      15.33768003      15.32670942      15.32359832      15.31419583      15.31030589      15.31504444      15.31118928      15.30633022
        15.30865825      15.32155852      15.33455393      15.34957370      15.37406368      15.41303069      15.44359498      15.45410902      15.46543712      15.47227236      15.48190246      15.50001354      15.47615302      15.46039020      15.46968846      15.46147509      15.42612059      15.33777101      15.26097910      15.23649737
        15.28213546      15.32136374      15.34734905      15.35312031      15.34135055      15.32784078      15.30375150      15.29572736      15.30212648      15.31184592      15.34062502      15.37528559      15.40647682      15.44667527      15.47068236      15.48024761      15.47733541      15.45644007      15.44198772      15.45639142
        15.46752903      15.44722371      15.42470910      15.41930256      15.42078159      15.41951068      15.42280431      15.39278278      15.36485750      15.37448390      15.38427942      15.38708171      15.38635652      15.40791104      15.42692350      15.44175391      15.45037057      15.46247594      15.48797457      15.52136223
        15.61993789      15.61638687      15.62371624      15.62203565      15.59495434      15.55126999      15.51050130      15.48172220      15.45860916      15.43254090      15.41244725      15.41375418      15.41802497      15.42129813      15.42398714      15.42358243      15.41760858      15.41012648      15.39913949      15.37106729
        15.39524431      15.43687817      15.44208592      15.41277089      15.37404746      15.35711351      15.36195650      15.36925249      15.37231077      15.37084284      15.36402238      15.36638966      15.37873816      15.37194104      15.36570573      15.35702617      15.34321077      15.34532289      15.34583903      15.34304658
        15.35031189      15.35854235      15.37385401      15.38843822      15.41118827      15.44612422      15.47487803      15.49196479      15.50670646      15.51777638      15.52504603      15.54455681      15.53585188      15.50400804      15.50253519      15.49150407      15.46975229      15.38235522      15.25488748      15.15262640
        15.29641084      15.35311688      15.38627389      15.40096558      15.39901714      15.40073928      15.37913841      15.35446938      15.36579531      15.37700597      15.40432390      15.42911339      15.45719044      15.48676095      15.50017332      15.50958062      15.51327418      15.50969504      15.49632027      15.49377169
        15.49893752      15.48605198      15.46674014      15.45817016      15.45766885      15.45758615      15.45767302      15.44421636      15.40701115      15.40586852      15.41673240      15.42188124      15.42568344      15.43548163      15.45634476      15.47399361      15.48406480      15.49442223      15.51896083      15.54261501
        15.66086737      15.64593649      15.64503201      15.64188208      15.62504191      15.59489251      15.55667058      15.51439009      15.48323243      15.45774150      15.43705789      15.43269517      15.42938270      15.42912695      15.42969172      15.42896551      15.42435680      15.41869963      15.41162720      15.40512727
        15.41402843      15.44363537      15.49436320      15.46401431      15.42021729      15.38432402      15.39536078      15.40061614      15.40234705      15.40199508      15.39509904      15.39531100      15.39712649      15.40239459      15.39700248      15.39105912      15.37798862      15.37614926      15.38142457      15.38584699
        15.39852546      15.40031834      15.41064250      15.42498709      15.44056944      15.47370006      15.50424638      15.51998276      15.54986061      15.56574002      15.56291867      15.56741079      15.57596022      15.55554259      15.53189522      15.51670004      15.49550852      15.45752107      15.35695656      15.30875793
        15.36301210      15.40759212      15.43252904      15.44717785      15.45214549      15.46955338      15.46915684      15.43793515      15.43286359      15.43853031      15.45091382      15.46963906      15.48930894      15.50603186      15.51753879      15.52747721      15.53496145      15.53708409      15.53463112      15.52473426
        15.52576363      15.52356233      15.50652141      15.50406485      15.50769962      15.50800267      15.50195372      15.50537520      15.46624025      15.43699966      15.43740063      15.44239987      15.44963633      15.45971304      15.47929969      15.49408860      15.50918070      15.52414074      15.54344594      15.56024451
        15.71104231      15.69382975      15.68007273      15.67487022      15.65177876      15.62023178      15.59017998      15.54042153      15.49767536      15.47200423      15.45283855      15.44375859      15.43726111      15.43535992      15.43474704      15.43422554      15.42989243      15.42672206      15.42290217      15.42204562
        15.42808316      15.44231403      15.48120115      15.48824722      15.44999559      15.41241946      15.41747211      15.42159240      15.42358974      15.42072853      15.41645863      15.41435512      15.41660783      15.42095246      15.41912655      15.41541068      15.40628427      15.40114590      15.41145260      15.42684197
        15.43949911      15.45021066      15.45655622      15.46400046      15.47929772      15.52329489      15.54082433      15.55731160      15.58895072      15.60028879      15.59530456      15.58816359      15.59486769      15.58743751      15.56481496      15.54985592      15.51944454      15.50153253      15.46010640      15.41098025
        15.42486792      15.45813809      15.47585288      15.49257230      15.50538363      15.52342687      15.53444543      15.52234491      15.50067847      15.49307738      15.48722084      15.49558208      15.50975600      15.51922688      15.52968491      15.53802343      15.54753193      15.55262273      15.55962786      15.55697621
        15.56048245      15.57100409      15.56134670      15.56069881      15.56285324      15.56449976      15.55988120      15.55991329      15.52518498      15.47643943      15.45476317      15.45680105      15.46513333      15.47813935      15.49409224      15.50935860      15.52812639      15.54279589      15.56147790      15.57328407
        15.77395721      15.76667620      15.74721426      15.74980755      15.71124035      15.64701486      15.61360354      15.56653200      15.50704688      15.47585369      15.46124730      15.45040075      15.44215646      15.43934388      15.43866895      15.43865263      15.43619050      15.43294847      15.43208050      15.43336978
        15.43961542      15.45003920      15.46682806      15.48233769      15.47573812      15.44064502      15.43330095      15.43890880      15.44294229      15.43965572      15.43339601      15.43073062      15.43362626      15.43498212      15.43720886      15.43416716      15.43055416      15.42807959      15.43761389      15.46003484
        15.47662570      15.49325904      15.50295292      15.50817278      15.53332587      15.57100816      15.58599939      15.59845334      15.61628407      15.62263885      15.61980389      15.61068574      15.60854453      15.61500721      15.60309357      15.59167866      15.55926876      15.53160683      15.52518868      15.50499309
        15.49168930      15.50096762      15.51684727      15.53567774      15.55783774      15.56594910      15.57336040      15.57766933      15.55999710      15.54474883      15.52064886      15.51434193      15.52503213      15.53181210      15.53777269      15.54867021      15.55738627      15.56721667      15.57912994      15.58949060
        15.59693672      15.62068790      15.63252233      15.62514870      15.62147206      15.62249132      15.62316221      15.61263101      15.57833616      15.52139094      15.48080654      15.47754019      15.48486234      15.49681873      15.51462245      15.53002340      15.54511958      15.55897740      15.57496720      15.58133636
        15.85922268      15.85136254      15.82727189      15.83576153      15.80514999      15.70247435      15.63298670      15.59597408      15.52372454      15.47765433      15.46523678      15.45498500      15.44583944      15.44253746      15.44115724      15.44066751      15.44007061      15.43868679      15.43916360      15.44109648
        15.44745295      15.45770385      15.47089736      15.48546589      15.49778011      15.49004486      15.45180628      15.45435536      15.45981348      15.45846251      15.45240028      15.44615530      15.44654969      15.45022933      15.45366374      15.45077973      15.45325412      15.45459050      15.46218677      15.48637382
        15.50567108      15.51761845      15.53549285      15.54771041      15.57336249      15.60278764      15.62174769      15.62909080      15.63956694      15.64446864      15.64376338      15.64111776      15.63610335      15.64399573      15.64226819      15.63336578      15.61236601      15.57483530      15.56338875      15.56576039
        15.55086898      15.55102342      15.55578091      15.57363671      15.60486362      15.60915935      15.60296362      15.60075410      15.59741539      15.58626350      15.56261327      15.53521266      15.53491321      15.54266888      15.54951823      15.56162115      15.56806407      15.58594877      15.61294091      15.63478686
        15.64357378      15.67696300      15.69195021      15.68936020      15.68666432      15.68410899      15.68922262      15.68491244      15.64818594      15.57377388      15.52070395      15.50016355      15.50704111      15.51687088      15.53933390      15.55149829      15.56526752      15.57699373      15.58581929      15.59195836
        15.94812695      15.92084338      15.89431479      15.89101892      15.88442954      15.78949025      15.67453434      15.64060123      15.55387064      15.48690033      15.46948086      15.45991126      15.45000518      15.44519251      15.44275356      15.44158981      15.44118474      15.44164952      15.44340061      15.44611963
        15.45180667      15.46046933      15.47520765      15.48806771      15.49753863      15.51048851      15.48182602      15.46569946      15.47062893      15.47261034      15.47048562      15.46217053      15.45963355      15.46415210      15.46692997      15.46924233      15.47579486      15.47977673      15.49407025      15.51501953
        15.53530380      15.54540152      15.56374681      15.57903530      15.60357290      15.62608138      15.64682004      15.65847679      15.66574283      15.66905515      15.66743882      15.66903845      15.66790861      15.67140482      15.67462788      15.67065493      15.66323485      15.64160059      15.62209691      15.61066681
        15.59866423      15.59838571      15.59666310      15.61356227      15.64069136      15.64770270      15.63693966      15.62268485      15.62551769      15.62064445      15.61085848      15.57584972      15.54793922      15.55645977      15.56778518      15.58104441      15.59078244      15.61423982      15.64973972      15.68071718
        15.69884826      15.72624618      15.73316408      15.74419258      15.73818728      15.73753733      15.73866579      15.74128029      15.72697389      15.66022741      15.57661505      15.53173148      15.53468881      15.54547925      15.56670411      15.57973470      15.59317820      15.59965082      15.60401888      15.60998161
        16.01355874      15.98549473      15.95618187      15.93055180      15.92875806      15.87644262      15.76844317      15.72180220      15.61045503      15.50813187      15.48182087      15.46921449      15.45648177      15.44784981      15.44343506      15.44150051      15.44086760      15.44150826      15.44498103      15.44973773
        15.45373207      15.46098002      15.47640783      15.48843427      15.49474226      15.50066275      15.49733955      15.47631533      15.47968663      15.48320437      15.48530781      15.48240131      15.47645207      15.47805961      15.48161740      15.48862459      15.49624657      15.50653264      15.52465849      15.54419447