# File generated by Flopy version 3.5.0 on 03/08/2024 at 12:52:30.
BEGIN options
END options

BEGIN timing
  TDIS6  Reference.tdis
END timing

BEGIN models
  gwf6  Reference.nam  reference
END models

BEGIN exchanges
END exchanges

BEGIN solutiongroup  1
  ims6  Reference.ims  reference
END solutiongroup  1

