# File generated by Flopy version 3.6.0 on 09/25/2024 at 13:42:30.
BEGIN options
END options

BEGIN timing
  TDIS6  Reference.tdis
END timing

BEGIN models
  gwf6  Reference.nam  reference
END models

BEGIN exchanges
END exchanges

BEGIN solutiongroup  1
  ims6  Reference.ims  reference
END solutiongroup  1

