# File generated by Flopy version 3.7.0 on 06/18/2024 at 14:49:39.
BEGIN options
END options

BEGIN griddata
  strt
    INTERNAL  FACTOR  1.0
        15.00000000      15.00000000      15.00000000      15.00000000      15.00000000      15.00000000      15.00000000      15.00000000      15.00000000      15.00000000      15.00000000      15.00000000      15.00000000      15.00000000      15.00000000      15.00000000      15.00000000      15.00000000      15.00000000      15.00000000
        15.00000000      15.00000000      15.00000000      15.00000000      15.00000000      15.00000000      15.00000000      15.00000000      15.00000000      15.00000000      15.00000000      15.00000000      15.00000000      15.00000000      15.00000000      15.00000000      15.00000000      15.00000000      15.00000000      15.00000000
        15.00000000      15.00000000      15.00000000      15.00000000      15.00000000      15.00000000      15.00000000      15.00000000      15.00000000      15.00000000      15.00000000      15.00000000      15.00000000      15.00000000      15.00000000      15.00000000      15.00000000      15.00000000      15.00000000      15.00000000
        15.00000000      15.00000000      15.00000000      15.00000000      15.00000000      15.00000000      15.00000000      15.00000000      15.00000000      15.00000000      15.00000000      15.00000000      15.00000000      15.00000000      15.00000000      15.00000000      15.00000000      15.00000000      15.00000000      15.00000000
        15.00000000      15.00000000      15.00000000      15.00000000      15.00000000      15.00000000      15.00000000      15.00000000      15.00000000      15.00000000      15.00000000      15.00000000      15.00000000      15.00000000      15.00000000      15.00000000      15.00000000      15.00000000      15.00000000      15.00000000
        15.05881531      15.06146662      15.06415512      15.06606430      15.06786399      15.07016165      15.07132296      15.07076753      15.06760863      15.06411897      15.06138535      15.05801124      15.05342056      15.04834639      15.04367106      15.03887838      15.03407131      15.02945166      15.02561903      15.02310093
        15.02185093      15.02157526      15.02189531      15.02260825      15.02371326      15.02491757      15.02591299      15.02713395      15.02805064      15.02775051      15.02634995      15.02453716      15.02249200      15.02058719      15.01887833      15.01742706      15.01633754      15.01545961      15.01480696      15.01445156
        15.01450380      15.01498056      15.01578930      15.01660585      15.01753830      15.01889705      15.02028589      15.02148530      15.02259586      15.02356658      15.02409390      15.02435643      15.02394968      15.02334574      15.02283353      15.02240673      15.02214444      15.02220151      15.02271415      15.02345162
        15.02381584      15.02365138      15.02334771      15.02307647      15.02278036      15.02246220      15.02198649      15.02153889      15.02162716      15.02236791      15.02392318      15.02598013      15.02872685      15.03269920      15.03688323      15.04082285      15.04405239      15.04608457      15.04718923      15.04752106
        15.04727472      15.04580230      15.04299110      15.03984701      15.03641240      15.03282193      15.02942051      15.02664145      15.02429164      15.02211952      15.02027774      15.01823598      15.01639941      15.01487669      15.01376684      15.01294440      15.01230773      15.01165872      15.01101939      15.01069882
        15.11608766      15.11879725      15.12220552      15.12539331      15.12854071      15.13163761      15.13316387      15.13234290      15.12900299      15.12473093      15.11974566      15.11278710      15.10336271      15.09305024      15.08283869      15.07278755      15.06339927      15.05476045      15.04725230      15.04250414
        15.04057017      15.04070906      15.04243788      15.04491658      15.04787010      15.05085244      15.05356810      15.05582896      15.05659425      15.05526599      15.05262241      15.04926065      15.04555626      15.04179249      15.03847818      15.03584966      15.03380790      15.03197955      15.03067404      15.03016599
        15.03053595      15.03140268      15.03271999      15.03402880      15.03521553      15.03681402      15.03864399      15.04042618      15.04212569      15.04366119      15.04476488      15.04527501      15.04513041      15.04467833      15.04402880      15.04351474      15.04359218      15.04424742      15.04543944      15.04679433
        15.04754239      15.04733657      15.04681547      15.04633369      15.04584344      15.04522285      15.04481547      15.04480041      15.04559637      15.04747973      15.05079466      15.05519392      15.06046177      15.06646087      15.07214185      15.07743834      15.08175980      15.08519026      15.08732753      15.08822645
        15.08751939      15.08466790      15.07986947      15.07426791      15.06837066      15.06239628      15.05675447      15.05192281      15.04778938      15.04399182      15.04041742      15.03688948      15.03370164      15.03105538      15.02914816      15.02747379      15.02591715      15.02449179      15.02335682      15.02263478
        15.16640847      15.16854252      15.17181958      15.17611298      15.17990965      15.18204533      15.18303503      15.18279983      15.18086697      15.17705771      15.17086779      15.16110707      15.14801540      15.13290153      15.11719689      15.10134487      15.08656855      15.07298889      15.06142852      15.05454504
        15.05255314      15.05431792      15.05884363      15.06461174      15.07064731      15.07639665      15.08157994      15.08499884      15.08538744      15.08332916      15.08006309      15.07600779      15.07146238      15.06612053      15.06101115      15.05670686      15.05348672      15.05097525      15.04906538      15.04801301
        15.04808931      15.04865138      15.04956857      15.05055888      15.05163669      15.05302998      15.05473248      15.05661793      15.05842980      15.06022150      15.06181554      15.06280014      15.06331739      15.06344114      15.06351423      15.06386224      15.06485433      15.06634900      15.06817163      15.06971787
        15.07054033      15.07055487      15.07007242      15.06944518      15.06876223      15.06817639      15.06822101      15.06903905      15.07084312      15.07413419      15.07890053      15.08499121      15.09170251      15.09848922      15.10503731      15.11089901      15.11557639      15.11925415      15.12145033      15.12192038
        15.12039400      15.11679465      15.11132494      15.10455343      15.09751414      15.09062733      15.08408503      15.07781990      15.07197376      15.06660520      15.06170041      15.05708877      15.05271327      15.04888602      15.04599152      15.04322255      15.04054779      15.03832883      15.03670725      15.03570478
        15.20802542      15.21008194      15.21333745      15.21773426      15.22119889      15.22297239      15.22412868      15.22436900      15.22331910      15.21991791      15.21287541      15.20162795      15.18644576      15.16731249      15.14580063      15.12334417      15.10146833      15.08109038      15.06459052      15.05561530
        15.05454896      15.05970255      15.06889973      15.07985912      15.09078572      15.10073023      15.10914995      15.11403193      15.11521789      15.11401527      15.11100077      15.10663564      15.10097381      15.09415123      15.08737284      15.08133145      15.07651289      15.07276375      15.06968646      15.06768746
        15.06659008      15.06610599      15.06613473      15.06649823      15.06734059      15.06842364      15.06961431      15.07101586      15.07273702      15.07470669      15.07659646      15.07824005      15.07969867      15.08098276      15.08237133      15.08407972      15.08619994      15.08831344      15.09018293      15.09166949
        15.09251949      15.09301227      15.09310641      15.09296416      15.09275343      15.09251713      15.09285956      15.09408768      15.09681803      15.10117304      15.10660620      15.11307442      15.12012121      15.12780192      15.13503080      15.14087862      15.14534204      15.14832001      15.14985386      15.14974281
        15.14781384      15.14447663      15.13962880      15.13354277      15.12695529      15.11987819      15.11276461      15.10567807      15.09849909      15.09148515      15.08520311      15.07931974      15.07372670      15.06868966      15.06425829      15.06003340      15.05630213      15.05334492      15.05119983      15.05012129
        15.24206092      15.24435832      15.24825525      15.25226834      15.25500678      15.25672368      15.25792804      15.25825445      15.25712475      15.25353540      15.24615305      15.23439684      15.21749405      15.19487057      15.16695193      15.13588893      15.10483641      15.07583916      15.05304847      15.04171745
        15.04300439      15.05398744      15.07028135      15.08871429      15.10677800      15.12280017      15.13531417      15.14290204      15.14644496      15.14701626      15.14483790      15.14009167      15.13304154      15.12511210      15.11707060      15.10933129      15.10276800      15.09731768      15.09256077      15.08884463
        15.08596963      15.08392784      15.08276459      15.08239193      15.08266157      15.08318955      15.08376393      15.08462955      15.08617559      15.08824677      15.09037270      15.09268428      15.09509507      15.09773350      15.10053933      15.10362531      15.10668329      15.10917569      15.11104958      15.11269657
        15.11401211      15.11524433      15.11618222      15.11665950      15.11685362      15.11715650      15.11783781      15.11949164      15.12260240      15.12706771      15.13275738      15.13942486      15.14677814      15.15457838      15.16136375      15.16619716      15.16962885      15.17187645      15.17288236      15.17260317
        15.17110027      15.16869015      15.16514220      15.16096106      15.15601477      15.14966413      15.14239582      15.13483629      15.12693683      15.11877389      15.11101570      15.10387945      15.09680104      15.09036381      15.08419111      15.07863611      15.07408689      15.07049381      15.06786956      15.06645587
        15.27170174      15.27399186      15.27753420      15.28065500      15.28287453      15.28441078      15.28527694      15.28517628      15.28363686      15.27975182      15.27236190      15.26025357      15.24168985      15.21524549      15.18003058      15.13872041      15.09631386      15.05627036      15.02484356      15.01070420
        15.01584816      15.03563364      15.06257433      15.09128254      15.11838048      15.14184877      15.15981619      15.17150551      15.17785579      15.18012826      15.17880003      15.17459491      15.16781080      15.15951446      15.15026027      15.14065136      15.13193748      15.12465694      15.11792742      15.11189337
        15.10673889      15.10264652      15.09990304      15.09827480      15.09758394      15.09749686      15.09775400      15.09840929      15.09960852      15.10144433      15.10365057      15.10648375      15.10981593      15.11364452      15.11787274      15.12220314      15.12605333      15.12919059      15.13182822      15.13398334
        15.13594181      15.13786650      15.13920904      15.13993961      15.14051976      15.14123638      15.14211254      15.14419278      15.14745790      15.15208820      15.15810361      15.16496235      15.17193390      15.17836368      15.18356976      15.18696610      15.18921488      15.19061540      15.19127915      15.19117608
        15.19055911      15.18956713      15.18801883      15.18609552      15.18317272      15.17843750      15.17199297      15.16460044      15.15644540      15.14746568      15.13826062      15.12990984      15.12177543      15.11383860      15.10617963      15.09980792      15.09464396      15.09033086      15.08721831      15.08549861
        15.29879806      15.30061817      15.30279996      15.30491203      15.30684717      15.30840298      15.30887636      15.30833774      15.30630093      15.30210136      15.29432876      15.28099253      15.25994106      15.22895958      15.18595006      15.13359140      15.07823285      15.02336249      14.97962940      14.96205326
        14.97298111      15.00501725      15.04654634      15.08879292      15.12692729      15.15830210      15.18212055      15.19804822      15.20736793      15.21188609      15.21220346      15.20950102      15.20429917      15.19649896      15.18689835      15.17606229      15.16509005      15.15474462      15.14522572      15.13681856
        15.12932846      15.12289474      15.11814409      15.11482672      15.11271802      15.11166956      15.11153985      15.11213616      15.11319894      15.11475584      15.11697060      15.12025854      15.12423924      15.12882146      15.13402330      15.13933615      15.14425286      15.14855109      15.15199600      15.15464272
        15.15695297      15.15904909      15.16056199      15.16176795      15.16288748      15.16377392      15.16514283      15.16757227      15.17104790      15.17577391      15.18155795      15.18762879      15.19306862      15.19790016      15.20154267      15.20399841      15.20561930      15.20668528      15.20718674      15.20760545
        15.20823951      15.20894215      15.20968526      15.20972566      15.20849184      15.20557883      15.20069703      15.19412842      15.18576514      15.17617081      15.16610809      15.15672679      15.14801658      15.13928688      15.13101075      15.12393564      15.11811541      15.11348621      15.11018601      15.10843488
        15.32455579      15.32585536      15.32736992      15.32906781      15.33075275      15.33169358      15.33153367      15.33024390      15.32737148      15.32246732      15.31399335      15.29902806      15.27485835      15.23840887      15.18810414      15.12543507      15.05456210      14.97944070      14.91687951      14.89175117
        14.91304899      14.96451736      15.02558749      15.08450166      15.13441555      15.17343113      15.20263518      15.22219316      15.23425249      15.24122176      15.24403301      15.24306126      15.23952707      15.23315734      15.22427428      15.21282909      15.19986413      15.18616153      15.17339759      15.16274114
        15.15326623      15.14480969      15.13804253      15.13295750      15.12935276      15.12719664      15.12631465      15.12646482      15.12719327      15.12848713      15.13070826      15.13409457      15.13818150      15.14304536      15.14884944      15.15503825      15.16113880      15.16645736      15.17071121      15.17401911
        15.17644498      15.17836991      15.17990453      15.18135781      15.18264587      15.18392533      15.18584939      15.18831170      15.19163001      15.19596127      15.20083832      15.20567065      15.20990895      15.21361987      15.21630872      15.21830201      15.21990810      15.22112305      15.22220629      15.22386748
        15.22599177      15.22844283      15.23076361      15.23192537      15.23179305      15.23029966      15.22694609      15.22134983      15.21316705      15.20338311      15.19330801      15.18364323      15.17474688      15.16630745      15.15831184      15.15103702      15.14502346      15.14058802      15.13744524      15.13573855
        15.35082335      15.35172361      15.35287867      15.35432661      15.35542194      15.35551115      15.35467498      15.35232437      15.34835135      15.34237372      15.33286281      15.31631046      15.28933408      15.24852313      15.19145537      15.11859515      15.03047178      14.92665161      14.82530310      14.77907264
        14.82481785      14.91473914      15.00531722      15.08312005      15.14431991      15.18985322      15.22224167      15.24373544      15.25743960      15.26620437      15.27112878      15.27241676      15.27063393      15.26589036      15.25804189      15.24691372      15.23340627      15.21844109      15.20344561      15.19049152
        15.17893356      15.16862592      15.16011214      15.15331779      15.14855793      15.14551192      15.14362911      15.14285452      15.14278199      15.14375268      15.14575976      15.14884630      15.15279116      15.15778302      15.16412899      15.17095450      15.17749903      15.18330854      15.18834048      15.19227105
        15.19445136      15.19597600      15.19716896      15.19843299      15.19979044      15.20142200      15.20337858      15.20576825      15.20891997      15.21277640      15.21682030      15.22078888      15.22431998      15.22717340      15.22943531      15.23128358      15.23306197      15.23479974      15.23710842      15.24015610
        15.24378689      15.24756871      15.25080499      15.25290840      15.25375984      15.25317410      15.25064976      15.24562908      15.23812897      15.22890547      15.21938176      15.21009246      15.20180630      15.19457203      15.18762821      15.18156807      15.17660360      15.17268960      15.16973967      15.16831851
        15.38034675      15.38033043      15.38047941      15.38089279      15.38084849      15.38017093      15.37853226      15.37535445      15.37034748      15.36308932      15.35231507      15.33458294      15.30576668      15.26193720      15.20028617      15.11984155      15.01503224      14.87242877      14.68647564      14.62582081
        14.62939706      14.48289924      14.49274835      14.69514836      14.86717232      14.99575016      15.09048887      15.15895119      15.20729167      15.24065922      15.26280296      15.27722722      15.28700316      15.29324697      15.29616372      15.29589485      15.29300425      15.28697598      15.27744317      15.26563049
        15.25210688      15.23730576      15.22252492      15.20852966      15.19541888      15.18489805      15.17684241      15.17104714      15.16712413      15.16420993      15.16217729      15.16133405      15.16197524      15.16388090      15.16673483      15.17040312      15.17526316      15.18131596      15.18762122      15.19364566
        15.19920779      15.20418125      15.20421048      15.20542873      15.20980580      15.21106012      15.20969685      15.21079242      15.21179715      15.21306951      15.21454109      15.21607936      15.21799540      15.22067121      15.22396926      15.22766126      15.23133413      15.23469329      15.23751952      15.23982849
        15.24187630      15.24378096      15.24585183      15.24850930      15.25205869      15.25640255      15.26124755      15.26594334      15.27011880      15.27314851      15.27472928      15.27457790      15.27227940      15.26775818      15.26148700      15.25372794      15.24512431      15.23701079      15.23008298      15.22432737
        15.21910079      15.21510692      15.21174643      15.20880387      15.20638970      15.20499996      15.41457387      15.41308769      15.41163480      15.41015488      15.40825106      15.40614763      15.40350498      15.39971766      15.39384497      15.38538420      15.37337662      15.35464783      15.32548572      15.28164240
        15.21995080      15.13783512      15.02594176      14.86369520      14.66544018      14.50501039      14.68664622      14.53605920      14.32686235      14.21249309      14.22107076      14.03359712      13.90903323      13.91382779      13.69073239      13.54233442      13.54485946      12.98134099      14.23876356      14.36063431
        13.97212805      14.10711192      13.71044175      13.85920399      13.55533000      13.81310326      14.03851654      14.28073735      14.26047656      13.98381888      13.71649920      13.55846252      13.86795081      13.81956248      14.12471856      14.05183611      14.39557426      14.30950573      13.71641958      13.87447419
        13.87740319      13.95811487      14.07815487      14.08457066      14.17708182      14.31280331      14.32838632      14.42561719      14.53558424      14.68634786      14.56909892      14.71047192      14.87199958      15.01566067      15.11199867      15.17931047      15.22627890      15.25837392      15.28002508      15.29482126
        15.30519891      15.31194445      15.31552622      15.31650626      15.31560232      15.31217015      15.30549122      15.29630300      15.28525644      15.27227846      15.25754043      15.24192623      15.22675250      15.21403555      15.20475779      15.19782081      15.19241656      15.18838737      15.18536681      15.18405828
        15.18439160      15.18582953      15.18815248      15.19104161      15.19509903      15.19993037      15.20482720      15.20964531      15.21382690      15.21407824      15.21500463      15.21906455      15.22061475      15.21492487      15.21535048      15.21748731      15.21753701      15.21776524      15.21876664      15.21878911
        15.21889169      15.21937636      15.21956046      15.21600860      15.21665259      15.21808894      15.21832168      15.21904274      15.21917175      15.21968219      15.21974580      15.21953197      15.21914670      15.22055094      15.22030083      15.22014142      15.22022981      15.22069207      15.22082811      15.22143516
        15.22170513      15.22294546      15.22355488      15.22035443      15.22050066      15.22096940      15.22104888      15.22103687      15.22198990      15.22215015      15.22208725      15.22407288      15.22430784      15.21867782      15.21964922      15.22380814      15.22407532      15.22292861      15.22430108      15.22575034
        15.22725541      15.22892799      15.23119252      15.23423512      15.23765143      15.24118894      15.24455031      15.24740102      15.24975618      15.25198713      15.25399776      15.25613258      15.25884831      15.26243613      15.26696798      15.27244541      15.27821058      15.28381814      15.28866625      15.29222402
        15.29431377      15.29443160      15.29255210      15.28903966      15.28439383      15.27868582      15.27207962      15.26563602      15.25997434      15.25570640      15.25238975      15.24971238      15.24729627      15.24520271      15.24345403      15.24235968      15.45112753      15.44871140      15.44569594      15.44216774
        15.43815797      15.43410958      15.43000606      15.42524745      15.41843247      15.40914706      15.39637557      15.37711793      15.34874411      15.30779348      15.25058111      15.17572411      15.07797883      14.94555450      14.77603941      14.58125325      14.59302771      14.74530870      14.75112107      14.79467004
        14.95386356      15.06758866      15.14787493      15.20555285      15.24676839      15.27567843      15.29624218      15.31080060      15.32094242      15.32745526      15.33149382      15.33389021      15.33480359      15.33390236      15.33043349      15.32444380      15.31576324      15.30451253      15.29142586      15.27649037
        15.26094729      15.24736558      15.23665853      15.22823398      15.22133462      15.21593995      15.21248016      15.21053200      15.20973051      15.20964384      15.21062059      15.21210681      15.21476691      15.21797416      15.22114810      15.22409363      15.22652029      15.22844665      15.22762862      15.22847813
        15.23164374      15.23226116      15.23160848      15.23321386      15.23479284      15.23644650      15.23823209      15.24038558      15.24308641      15.24639044      15.24984677      15.25320030      15.25621369      15.25885868      15.26126564      15.26367400      15.26595759      15.26858398      15.27200609      15.27635515
        15.28185011      15.28829687      15.29489834      15.30108933      15.30622146      15.30997657      15.31225568      15.31288733      15.31199124      15.30991447      15.30712663      15.30333485      15.29905293      15.29459641      15.29061484      15.28771810      15.28524979      15.28264342      15.28044168      15.27890486
        15.27792913      15.27781607      15.48516021      15.48280129      15.47903423      15.47407683      15.46847551      15.46307518      15.45751782      15.45135452      15.44337867      15.43330903      15.42048279      15.40162776      15.37474007      15.33789821      15.28879618      15.22684145      15.15085056      15.06095755
        14.97459779      14.93713444      14.98051577      15.05886898      15.13212732      15.18981906      15.23415405      15.26781651      15.29295699      15.31153396      15.32475284      15.33386193      15.34002479      15.34461254      15.34827176      15.35075475      15.35181777      15.35075157      15.34743393      15.34119592
        15.33186806      15.32097153      15.30835587      15.29382554      15.28024476      15.26846006      15.25875795      15.25063218      15.24382783      15.23916458      15.23576946      15.23305845      15.23097685      15.23013018      15.22978214      15.23056479      15.23181618      15.23316153      15.23460327      15.23599407
        15.23727164      15.23840497      15.23972239      15.24124834      15.24292682      15.24490699      15.24719845      15.24983809      15.25298958      15.25655835      15.26013683      15.26347396      15.26656843      15.26949101      15.27222604      15.27497585      15.27774188      15.28090759      15.28512496      15.29055839
        15.29740696      15.30478395      15.31165182      15.31766872      15.32259191      15.32626304      15.32871560      15.33014880      15.33045307      15.33007770      15.32926072      15.32758631      15.32533180      15.32274661      15.32026575      15.31780637      15.31503486      15.31208719      15.31000131      15.30910144
        15.30908737      15.30967861      15.51447732      15.51235140      15.50840321      15.50330615      15.49764468      15.49180783      15.48548622      15.47797831      15.46895183      15.45824839      15.44541517      15.42765877      15.40330228      15.37096598      15.33001097      15.28111956      15.22429647      15.16267341
        15.11031096      15.08838373      15.10462631      15.14572754      15.19051353      15.22945454      15.26231316      15.28900918      15.31000014      15.32581238      15.33709487      15.34510851      15.35099773      15.35594324      15.36029471      15.36369015      15.36583161      15.36625743      15.36451498      15.36048884
        15.35363508      15.34495217      15.33419894      15.32103622      15.30760092      15.29529161      15.28450696      15.27497718      15.26637053      15.25952098      15.25399307      15.24921636      15.24547801      15.24301532      15.24104092      15.24020503      15.23978552      15.23983299      15.24042117      15.24131434
        15.24241653      15.24356282      15.24490645      15.24655136      15.24853977      15.25093885      15.25373401      15.25690151      15.26046375      15.26436006      15.26820286      15.27191408      15.27556849      15.27900859      15.28211976      15.28537963      15.28873711      15.29268172      15.29808738      15.30486644
        15.31272590      15.32030637      15.32686589      15.33241535      15.33696359      15.34066135      15.34360516      15.34595499      15.34763823      15.34887100      15.34972953      15.35005698      15.34977015      15.34874995      15.34699429      15.34457697      15.34170987      15.33883402      15.33689863      15.33654475
        15.33715397      15.33782313      15.53985573      15.53791492      15.53441370      15.53006009      15.52490763      15.51907210      15.51220083      15.50387838      15.49402615      15.48265882      15.46959278      15.45279271      15.43073892      15.40291531      15.36928718      15.33108752      15.28861313      15.24380973
        15.20710790      15.18892663      15.19242776      15.21282520      15.23899408      15.26502722      15.28926058      15.31003623      15.32678223      15.33940829      15.34860258      15.35548063      15.36086919      15.36582270      15.37033560      15.37391871      15.37650339      15.37754150      15.37652531      15.37372062
        15.36847082      15.36101721      15.35116983      15.33846086      15.32469288      15.31198703      15.30018265      15.28927126      15.27932197      15.27074518      15.26336425      15.25695545      15.25199323      15.24826192      15.24518207      15.24348691      15.24242543      15.24206819      15.24238478      15.24317297
        15.24431150      15.24565727      15.24729579      15.24931410      15.25169063      15.25455629      15.25788277      15.26153053      15.26550164      15.26988628      15.27426161      15.27859342      15.28290360      15.28691659      15.29057205      15.29444668      15.29855748      15.30355952      15.31006090      15.31772637
        15.32562082      15.33276188      15.33897166      15.34428589      15.34883370      15.35269690      15.35617517      15.35941971      15.36250194      15.36536797      15.36784705      15.36981985      15.37084263      15.37086694      15.36974819      15.36802263      15.36587255      15.36383463      15.36248114      15.36249326
        15.36325194      15.36390186      15.56353254      15.56159506      15.55847698      15.55454817      15.54934793      15.54338944      15.53607418      15.52750462      15.51745539      15.50574956      15.49226942      15.47596319      15.45588060      15.43147438      15.40358089      15.37311846      15.34058503      15.30703052
        15.27911588      15.26304789      15.26031088      15.26760866      15.28167131      15.29858806      15.31551904      15.33045411      15.34270249      15.35218440      15.35932676      15.36488020      15.36958151      15.37410766      15.37812459      15.38121742      15.38339772      15.38397674      15.38243008      15.37941212