# File generated by Flopy version 3.6.0 on 07/18/2024 at 12:24:23.
BEGIN options
  SAVE_FLOWS
END options

BEGIN griddata
  iconvert
    CONSTANT  1
  ss
    CONSTANT  1.00000000E-05
  sy
    CONSTANT       0.40000000
END griddata

BEGIN period  1
  TRANSIENT
END period  1

