# File generated by Flopy version 3.7.0 on 08/02/2024 at 14:40:08.
BEGIN options
  SAVE_FLOWS
END options

BEGIN griddata
  iconvert
    CONSTANT  1
  ss
    CONSTANT  1.00000000E-04
  sy
    CONSTANT       0.15000000
END griddata

BEGIN period  1
  TRANSIENT
END period  1

