# File generated by Flopy version 3.7.0 on 08/05/2024 at 11:37:08.
BEGIN options
END options

BEGIN griddata
  strt
    INTERNAL  FACTOR  1.0
        15.00000000      15.00000000      15.00000000      15.00000000      15.00000000      15.00000000      15.00000000      15.00000000      15.00000000      15.00000000      15.00000000      15.00000000      15.00000000      15.00000000      15.00000000      15.00000000      15.00000000      15.00000000      15.00000000      15.00000000
        15.00000000      15.00000000      15.00000000      15.00000000      15.00000000      15.00000000      15.00000000      15.00000000      15.00000000      15.00000000      15.00000000      15.00000000      15.00000000      15.00000000      15.00000000      15.00000000      15.00000000      15.00000000      15.00000000      15.00000000
        15.00000000      15.00000000      15.00000000      15.00000000      15.00000000      15.00000000      15.00000000      15.00000000      15.00000000      15.00000000      15.00000000      15.00000000      15.00000000      15.00000000      15.00000000      15.00000000      15.00000000      15.00000000      15.00000000      15.00000000
        15.00000000      15.00000000      15.00000000      15.00000000      15.00000000      15.00000000      15.00000000      15.00000000      15.00000000      15.00000000      15.00000000      15.00000000      15.00000000      15.00000000      15.00000000      15.00000000      15.00000000      15.00000000      15.00000000      15.00000000
        15.00000000      15.00000000      15.00000000      15.00000000      15.00000000      15.00000000      15.00000000      15.00000000      15.00000000      15.00000000      15.00000000      15.00000000      15.00000000      15.00000000      15.00000000      15.00000000      15.00000000      15.00000000      15.00000000      15.00000000
        15.04006918      15.03926556      15.03893318      15.04037976      15.04398620      15.04811946      15.05276072      15.05827537      15.06285938      15.06645697      15.06709066      15.06765207      15.06862537      15.06746123      15.06670850      15.06759434      15.06698466      15.06615705      15.06571997      15.06532007
        15.06577225      15.06821834      15.06872172      15.06984022      15.07148044      15.07280307      15.07804519      15.08764070      15.09699430      15.10839665      15.11845119      15.12704606      15.13479810      15.14469721      15.15590347      15.17020656      15.18693570      15.19932774      15.20751681      15.20315523
        15.18695952      15.16864990      15.15481825      15.15014444      15.15074128      15.14698304      15.14368637      15.14367813      15.14404477      15.14919520      15.15401998      15.15730342      15.16574061      15.17609217      15.18648234      15.19044226      15.19151720      15.19353502      15.19073127      15.18773906
        15.18785453      15.18253667      15.17697332      15.17654871      15.18457220      15.19672230      15.21085011      15.22654887      15.24636297      15.25927288      15.26952264      15.28769377      15.31154681      15.32238047      15.32837411      15.32837839      15.32715787      15.31905691      15.30818848      15.30205010
        15.28359624      15.26010915      15.25194754      15.25641079      15.25844969      15.25500680      15.24443053      15.23465357      15.22529677      15.22092181      15.22232657      15.22566599      15.23138011      15.23738456      15.24352856      15.25364089      15.25297542      15.24709232      15.24235209      15.23616059
        15.08327529      15.08292765      15.08247470      15.08372630      15.08851168      15.09397948      15.10043972      15.10768559      15.11473371      15.12057975      15.12403240      15.12668530      15.12912310      15.13058528      15.13115497      15.13267071      15.13416437      15.13524449      15.13601432      15.13739496
        15.13901581      15.14049921      15.14083582      15.14077258      15.14354184      15.14792725      15.15644459      15.16989442      15.18403497      15.20021484      15.21843783      15.23471944      15.25110160      15.27163581      15.29366531      15.31687733      15.34692437      15.37307191      15.39316580      15.39412809
        15.37370962      15.34280778      15.31327505      15.29817377      15.29636308      15.29319500      15.28547551      15.28220585      15.28472890      15.28881966      15.29539381      15.30151858      15.31291615      15.32735064      15.34326343      15.35520735      15.36097503      15.36420128      15.36321214      15.35835862
        15.35666032      15.35289769      15.34405823      15.34400533      15.35260948      15.37014624      15.39073843      15.41604560      15.44796140      15.47559478      15.49648046      15.51908051      15.54773980      15.56899017      15.58409750      15.58626539      15.58605190      15.58191899      15.57419267      15.56543769
        15.54884153      15.51684890      15.49433578      15.49459940      15.49733452      15.49843115      15.48447494      15.46865302      15.45285403      15.44181454      15.44318385      15.45206459      15.46177122      15.47119239      15.48163152      15.49895844      15.50181943      15.49611746      15.49242588      15.48782439
        15.12740641      15.12812586      15.12808630      15.12891565      15.13273494      15.13771727      15.14456577      15.15232236      15.16150228      15.16908183      15.17567305      15.18108567      15.18564288      15.18995700      15.19342166      15.19609750      15.20063652      15.20615795      15.21055256      15.21447147
        15.21759768      15.21837966      15.21736738      15.21683450      15.21807522      15.22452843      15.23412516      15.24886997      15.26622040      15.28404381      15.30620432      15.32986319      15.35663502      15.38610893      15.41725874      15.45045174      15.48991339      15.52910216      15.55983204      15.57043678
        15.55515059      15.51874283      15.48052937      15.45326758      15.44315175      15.43781439      15.42874014      15.42091378      15.42069141      15.42345281      15.42901671      15.43463489      15.44465872      15.45998705      15.47817474      15.49704883      15.50936286      15.51570476      15.51856802      15.51642588
        15.51374561      15.51104884      15.50451156      15.50371868      15.51128646      15.52848909      15.55178402      15.58005022      15.61597008      15.65284307      15.68698923      15.71505436      15.73970668      15.76556838      15.78639012      15.79583902      15.79589870      15.79814832      15.79662454      15.79333257
        15.78192592      15.75567694      15.72615635      15.71815188      15.72167188      15.72423959      15.71456248      15.69684010      15.67765506      15.66042297      15.65596534      15.66870506      15.68218724      15.69635409      15.71100980      15.72872150      15.74069005      15.73996286      15.73675049      15.73524426
        15.17164630      15.17286096      15.17333762      15.17444843      15.17738222      15.18186614      15.18793176      15.19611595      15.20546059      15.21508073      15.22435076      15.23222843      15.23912971      15.24540395      15.25170431      15.25766917      15.26479433      15.27425365      15.28353188      15.29081780
        15.29542303      15.29720690      15.29713437      15.29749498      15.29770581      15.30384566      15.31329877      15.32739293      15.34574233      15.36453345      15.38794494      15.41674764      15.45106902      15.48746636      15.52609105      15.56835175      15.61499772      15.66455191      15.70442213      15.72684952
        15.72199982      15.68944486      15.64788559      15.61261678      15.59067477      15.57974918      15.57081025      15.56117102      15.55256903      15.55142179      15.55437423      15.55820239      15.56601286      15.57875188      15.59638422      15.61742766      15.63547965      15.64859728      15.65649691      15.65961006
        15.65875622      15.65721216      15.65416217      15.65434412      15.66036262      15.67536304      15.69739772      15.72667701      15.76103864      15.80156019      15.84438189      15.87918265      15.90389414      15.93025180      15.95385202      15.96877083      15.97274746      15.97769106      15.98272273      15.98326018
        15.97845651      15.96402439      15.94128972      15.92652669      15.92542752      15.92730696      15.92271365      15.90744236      15.89021063      15.87013656      15.85869644      15.86628769      15.88334400      15.90165714      15.92002749      15.93713796      15.95701015      15.96727722      15.96870991      15.96777614
        15.21642471      15.21695457      15.21721340      15.21895666      15.22120645      15.22571524      15.23160966      15.24006053      15.24928903      15.26001472      15.27061853      15.28059093      15.28885212      15.29628771      15.30439135      15.31378030      15.32416204      15.33633354      15.34940346      15.36101267
        15.36933284      15.37390211      15.37780666      15.37970235      15.38109096      15.38681560      15.39583919      15.40875546      15.42541991      15.44487487      15.46784151      15.49909440      15.53580290      15.57724885      15.62179933      15.66992838      15.72319127      15.77893699      15.82758950      15.86207962
        15.87119766      15.85234402      15.81189048      15.77119239      15.73948547      15.72116072      15.70955484      15.69895487      15.68378370      15.67377094      15.67115868      15.67424396      15.67952491      15.68823980      15.70151882      15.72154052      15.74259584      15.76160226      15.77625292      15.78600005
        15.78878333      15.78899930      15.78869723      15.79299990      15.80056652      15.81390881      15.83217677      15.85829078      15.89059487      15.93122225      15.97637263      16.01603418      16.04675704      16.07156981      16.09457298      16.11103037      16.12039759      16.12644187      16.13413912      16.13933297
        16.14135040      16.13835417      16.12680739      16.11445499      16.11027680      16.11062329      16.10878117      16.09792029      16.08474559      16.06717693      16.05016890      16.05004969      16.06748444      16.08775236      16.10840785      16.12778246      16.15233215      16.17480222      16.18375129      16.18488655
        15.26081833      15.26070359      15.26052887      15.26183217      15.26400240      15.26819240      15.27477303      15.28320372      15.29262368      15.30331475      15.31472418      15.32623423      15.33550410      15.34435794      15.35402980      15.36552473      15.37844885      15.39223692      15.40687171      15.42174758
        15.43531651      15.44599354      15.45513753      15.46053426      15.46526507      15.47167969      15.48097139      15.49340879      15.50777722      15.52709262      15.55010606      15.58154936      15.61839040      15.66183797      15.70898378      15.76046127      15.81632935      15.87421690      15.92915996      15.97738236
        16.00624375      16.00344676      15.96982586      15.92420861      15.88761083      15.86276298      15.84566617      15.83208128      15.81428311      15.79734569      15.78738901      15.78590569      15.78679830      15.79136619      15.80001246      15.81643709      15.83754423      15.85926298      15.88070779      15.89717678
        15.90519094      15.90736620      15.91036459      15.91721595      15.92915890      15.94168749      15.95755747      15.97850833      16.00947652      16.04790848      16.09197675      16.13335055      16.16847403      16.19466952      16.21488851      16.23159461      16.24356916      16.25135933      16.25952208      16.26841664
        16.27555499      16.28050385      16.27901589      16.27309658      16.27223772      16.27289590      16.27324640      16.26919431      16.26049435      16.24905518      16.23341634      16.22686058      16.23737071      16.25768558      16.27997654      16.30348786      16.33186387      16.36166589      16.37529354      16.38067532
        15.30292862      15.30236359      15.30246178      15.30279509      15.30506224      15.30901842      15.31574597      15.32391707      15.33309879      15.34358160      15.35557158      15.36801269      15.37876681      15.38932829      15.40072371      15.41294632      15.42671294      15.44077068      15.45530504      15.47153941
        15.48944677      15.50808244      15.52450243      15.53612774      15.54646542      15.55495601      15.56561348      15.57858951      15.59341956      15.61238445      15.63577827      15.66516147      15.70225262      15.74558541      15.79251083      15.84371985      15.89783049      15.95421323      16.01227490      16.07194714
        16.12071367      16.13885148      16.11752987      16.07240375      16.03041983      16.00054059      15.97895573      15.96152481      15.94228956      15.92423112      15.90973188      15.89980240      15.89401916      15.89433321      15.89894435      15.90948323      15.92873831      15.95165880      15.97661244      15.99632933
        16.00942456      16.01591159      16.02211602      16.03009040      16.04366245      16.05785780      16.07290560      16.09321141      16.12059554      16.15557925      16.19621663      16.23713904      16.27360737      16.30219521      16.32228097      16.33694015      16.34948749      16.35863892      16.36806900      16.37759552
        16.38715496      16.39632725      16.40462365      16.40691909      16.40950183      16.41210143      16.41462195      16.41800059      16.41624338      16.41220461      16.40388390      16.39457548      16.39744122      16.41507567      16.43803727      16.46683316      16.50125788      16.53263475      16.54933682      16.55664669
        15.34435433      15.34339035      15.34353743      15.34324344      15.34508587      15.34932432      15.35551822      15.36290615      15.37160834      15.38202666      15.39385852      15.40645279      15.41883820      15.43102232      15.44341261      15.45621811      15.46952570      15.48257928      15.49551234      15.51126936
        15.53319126      15.56004261      15.58511168      15.60520593      15.62139920      15.63422611      15.64760170      15.66270159      15.68056926      15.69980681      15.72321385      15.75067460      15.78707011      15.82872282      15.87308064      15.92047937      15.97060011      16.02301776      16.08218764      16.14794323
        16.21050317      16.24926001      16.24725987      16.21301437      16.16875660      16.13324922      16.10669869      16.08582275      16.06581653      16.04832707      16.03342943      16.01864868      16.00664618      16.00119729      16.00096629      16.00545005      16.02115811      16.04516571      16.06956311      16.09057502
        16.10750767      16.11802599      16.12617872      16.13564881      16.14814841      16.16354587      16.17868160      16.19914890      16.22417649      16.25632722      16.29277654      16.32970257      16.36397191      16.39411072      16.41566033      16.42886542      16.44154773      16.45152657      16.46171904      16.47286518
        16.48309072      16.49501161      16.50861302      16.51980867      16.52542878      16.52995747      16.53481257      16.54130883      16.54680965      16.54984902      16.54910973      16.54407367      16.54474592      16.55857321      16.58203522      16.61633818      16.65475158      16.68603029      16.70627361      16.71316164
        15.38512594      15.38501890      15.38507962      15.38461941      15.38574756      15.38957065      15.39526659      15.40186283      15.40984832      15.41957448      15.43100280      15.44331605      15.45660309      15.46996264      15.48289179      15.49594153      15.50796100      15.51864133      15.52781352      15.53927754
        15.56717249      15.60282395      15.63706820      15.66602418      15.68896891      15.70843660      15.72625270      15.74432123      15.76445528      15.78512473      15.80817418      15.83462391      15.86786104      15.90669534      15.94771617      15.99067322      16.03623201      16.08560572      16.14458021      16.21183156
        16.28220674      16.33567256      16.35497377      16.33785620      16.30141127      16.26302347      16.23183114      16.20656788      16.18506501      16.16611450      16.15177196      16.13698837      16.12364288      16.11359025      16.10884932      16.10903215      16.12014151      16.14210777      16.16483700      16.18628702
        16.20479984      16.21767715      16.22658028      16.23589985      16.24704560      16.25928266      16.27468878      16.29320636      16.31808400      16.34763581      16.37907425      16.41023731      16.44035717      16.46910741      16.49126133      16.50569604      16.51863474      16.52994840      16.54089848      16.55372664
        16.56576692      16.57999632      16.59483983      16.60968554      16.61975231      16.62637336      16.63348725      16.64204758      16.65165999      16.65891654      16.66351678      16.66625833      16.67143561      16.68535609      16.71026210      16.74550795      16.78307909      16.81551642      16.83803852      16.84596751
        15.42491278      15.42548931      15.42582918      15.42568493      15.42638446      15.42947887      15.43435597      15.44031565      15.44747759      15.45580022      15.46690576      15.47879808      15.49177972      15.50574345      15.51918100      15.53164262      15.54286495      15.55030640      15.55185119      15.54872872
        15.58956477      15.63702796      15.68125325      15.71885919      15.74996384      15.77684734      15.80038186      15.82175993      15.84266385      15.86398986      15.88650148      15.91263132      15.94342059      15.97916690      16.01690977      16.05571543      16.09720801      16.14409693      16.20128159      16.26901640
        16.34167691      16.40367228      16.44190484      16.44308860      16.42010987      16.38667169      16.35469916      16.32624131      16.30250847      16.28020907      16.26453914      16.25215648      16.24118442      16.23209068      16.22618088      16.22380447      16.22953158      16.24559498      16.26656781      16.28655454
        16.30529629      16.31960233      16.32823622      16.33362877      16.34068103      16.34898331      16.36202334      16.37862350      16.40160230      16.42733178      16.45417303      16.48147699      16.50698846      16.53190161      16.55318537      16.56937122      16.58304313      16.59631878      16.60883103      16.62200987
        16.63646993      16.65205963      16.66738392      16.68281395      16.69639689      16.70652875      16.71628236      16.72672310      16.73805358      16.74747779      16.75561924      16.76404329      16.77716111      16.79506465      16.82197449      16.85524637      16.88986092      16.92154494      16.94372907      16.95281938
        15.46450974      15.46462011      15.46474548      15.46502097      15.46558171      15.46810300      15.47184646      15.47672182      15.48284542      15.49040733      15.50061492      15.51141948      15.52372645      15.53748390      15.55097906      15.56335716      15.57442373      15.58023324      15.57198908      15.51813232
        15.60675673      15.66863307      15.72084413      15.76577844      15.80392721      15.83689270      15.86604981      15.89098187      15.91270481      15.93375856      15.95601921      15.98218674      16.01269440      16.04572413      16.08012441      16.11433244      16.15222966      16.19709365      16.25372805      16.32141995
        16.39251093      16.45839557      16.50903596      16.52795531      16.51858412      16.49527815      16.46718583      16.44016746      16.41456647      16.38963168      16.37174518      16.36253830      16.35606692      16.35104711      16.34840724      16.34686161      16.34729433      16.35647487      16.37332583      16.39210578
        16.40999972      16.42351389      16.42980571      16.42917253      16.42897770      16.43322191      16.44230782      16.45707677      16.47628376      16.49806171      16.52097588      16.54438185      16.56623358      16.58688455      16.60513462      16.62210700      16.63694936      16.65193196      16.66662274      16.68023942
        16.69571267      16.71188278      16.72835888      16.74474914      16.76056449      16.77458897      16.78751946      16.79943245      16.81202793      16.82447037      16.83560117      16.84871488      16.86705769      16.89007808      16.91859504      16.94980312      16.97982567      17.00833481      17.02922010      17.03855079
        15.50358751      15.50310892      15.50311651      15.50372632      15.50385151      15.50532417      15.50783422      15.51157690      15.51673288      15.52345716      15.53206058      15.54187644      15.55335734      15.56640576      15.57973160      15.59245109      15.60406757      15.61384708      15.61899392      15.62189578
        15.66078603      15.70972917      15.76122691      15.80921296      15.85138588      15.88861405      15.92182741      15.94986458      15.97339957      15.99470971      16.01764239      16.04462713      16.07564153      16.10697627      16.13750110      16.16763257      16.20258975      16.24675899      16.30392739      16.36954398
        16.43725236      16.50375981      16.56078611      16.59392045      16.59844232      16.58598430      16.56575571      16.54462106      16.52016452      16.49498395      16.47612783      16.46822716      16.46603736      16.46618772      16.46935196      16.47206266      16.47092095      16.47359129      16.48428280      16.50113282
        16.51834529      16.52916495      16.53187919      16.52532032      16.51735234      16.51563010      16.51964760      16.53055203      16.54522814      16.56366757      16.58282012      16.60139198      16.62016819      16.63645125      16.65152801      16.66736996      16.68244748      16.69800074      16.71357931      16.72821039
        16.74373825      16.76048519      16.77807556      16.79643987      16.81457346      16.83266807      16.84871674      16.86348089      16.87753797      16.89316432      16.90820918      16.92481085      16.94495953      16.97022409      16.99845047      17.02661974      17.05276859      17.07734696      17.09712298      17.10660068
        15.53987460      15.53964342      15.54013738      15.54124950      15.54160615      15.54182095      15.54303867      15.54575812      15.55008331      15.55576943      15.56254653      15.57167953      15.58262713      15.59489293      15.60761231      15.62028464      15.63274417      15.64588478      15.65969275      15.67696836
        15.70766173      15.75061748      15.80040367      15.84883974      15.89264863      15.93279794      15.96908462      16.00019958      16.02609743      16.04934945      16.07363602      16.10127881      16.13166538      16.16154635      16.18852957      16.21629300      16.24922053      16.29288026      16.34940984      16.41306687
        16.47795741      16.54175185      16.60128795      16.64263798      16.65885298      16.65781911      16.64764078      16.63400545      16.61740632      16.59624197      16.57854782      16.57026519      16.56995320      16.57530152      16.58428404      16.59254822      16.59397692      16.59211492      16.59753262      16.61165998
        16.62627334      16.63483087      16.63442505      16.62345408      16.60684543      16.59810195      16.59622465      16.60150028      16.61160630      16.62562897      16.64114190      16.65536962      16.67006833      16.68261217      16.69460874      16.70785798      16.72200917      16.73669331      16.75149143      16.76654015
        16.78214190      16.79934175      16.81857099      16.83901190      16.85993806      16.88184313      16.90103352      16.91891570      16.93530055      16.95278945      16.97043580      16.98857022      17.00970464      17.03463414      17.06088005      17.08617783      17.10977206      17.13201529      17.15029557      17.16007988
        15.57161682      15.57270910      15.57415519      15.57645538      15.57808931      15.57809474      15.57840852      15.57962064      15.58262579      15.58772446      15.59341831      15.60195829      15.61286621      15.62422296      15.63610812      15.64821477      15.66136255      15.67657410      15.69479239      15.71714183
        15.74739429      15.78799555      15.83605906      15.88446208      15.92939657      15.97166450      16.01005050      16.04325975      16.07157036      16.09687546      16.12235034      16.15012431      16.17893768      16.20702628      16.23156344      16.25810474      16.29000277      16.33324517      16.38878304      16.45161852
        16.51436403      16.57415975      16.63262744      16.67820772      16.70322744      16.71284975      16.71293070      16.70732241      16.70070303      16.68913178      16.67656393      16.66888101      16.66880154      16.67681102      16.68947436      16.70383319      16.71175000      16.71084331      16.71188057      16.72097554
        16.73229955      16.73932468      16.73569283      16.72046524      16.69624914      16.67905809      16.67169375      16.67096860      16.67579951      16.68492427      16.69633452      16.70690780      16.71712004      16.72622986      16.73498193      16.74541418      16.75802302      16.77155392      16.78488630      16.79893534
        16.81434395      16.83170390      16.85216954      16.87457840      16.89897641      16.92366045      16.94624630      16.96628084      16.98451451      17.00253673      17.02026452      17.03927186      17.06105950      17.08553551      17.11025681      17.13357838      17.15554662      17.17676178      17.19333276      17.20302380
        15.60071290      15.60297177      15.60581445      15.60949898      15.61262424      15.61374358      15.61411153      15.61400336      15.61552375      15.61959301      15.62563364      15.63399053      15.64443357      15.65519650      15.66604156      15.67723591      15.69109221      15.70751875      15.72810795      15.75223967
        15.78284132      15.82167046      15.86881494      15.91760859      15.96329782      16.00580771      16.04488988      16.07952228      16.10969865      16.13662505      16.16301523      16.19015323      16.21752893      16.24348447      16.26697692      16.29276318      16.32444507      16.36718374      16.42215132      16.48490873
        16.54618668      16.60259395      16.65822969      16.70615929      16.73816673      16.75674974      16.76625971      16.76922176      16.77019975      16.76914687      16.76558551      16.76245250      16.76392783      16.77162451      16.78580037      16.80457596      16.82068658      16.82763100      16.82795800      16.83258191
        16.84091862      16.84468760      16.83553518      16.81420726      16.78470471      16.75895065      16.74491686      16.73786836      16.73718889      16.74116246      16.74788060      16.75519271      16.76120869      16.76708766      16.77335805      16.78148827      16.79231811      16.80434756      16.81628076      16.82877318
        16.84336981      16.86057718      16.88184210      16.90623374      16.93366513      16.96092377      16.98585143      17.00692541      17.02589208      17.04349606      17.06049734      17.07944576      17.10168046      17.12602387      17.15017874      17.17187826      17.19282093      17.21269024      17.22793542      17.23643807
        15.62820209      15.63095010      15.63506174      15.63939189      15.64357717      15.64620722      15.64770956      15.64791608      15.64855663      15.65162257      15.65826684      15.66699172      15.67635911      15.68645237      15.69646854      15.70734671      15.72127531      15.73844466      15.75972085      15.78440105
        15.81469533      15.85219084      15.89799373      15.94658754      15.99199595      16.03336164      16.07255640      16.10829501      16.13987272      16.16775873      16.19416190      16.22070718      16.24758315      16.27224964      16.29534690      16.32059812      16.35245293      16.39475435      16.44928011      16.51266938
        16.57327274      16.62734241      16.68055755      16.72915921      16.76615729      16.79191068      16.80906137      16.81968986      16.82721137      16.83388988      16.83901506      16.84326152      16.84913427      16.85728831      16.87186456      16.89247637      16.91416262      16.93106842      16.93938846      16.94447431
        16.94927676      16.94791564      16.93248400      16.90191115      16.86687508      16.83403416      16.81236024      16.79918297      16.79222933      16.79088057      16.79311075      16.79747949      16.80083804      16.80460286      16.80908112      16.81561922      16.82427275      16.83458237      16.84540356      16.85651539
        16.87008244      16.88726478      16.90919056      16.93524309      16.96502563      16.99423640      17.02005329      17.04168057      17.06065748      17.07766046      17.09339670      17.11163952      17.13311424      17.15733198      17.18135031      17.20227452      17.22215094      17.24044343      17.25435326      17.26154586
        15.65460239      15.65733539      15.66193359      15.66637973      15.67072590      15.67486537      15.67778330      15.67960275      15.68082896      15.68397058      15.69056196      15.69925912      15.70810026      15.71746370      15.72669206      15.73782421      15.75158674      15.76916066      15.79012594      15.81483476
        15.84413152      15.87975779      15.92317676      15.97033892      16.01424349      16.05513620      16.09371715      16.12946119      16.16179650      16.19038189      16.21717107      16.24410743      16.27097057      16.29520100      16.31779195      16.34264131      16.37470881      16.41698795      16.47125869      16.53513074