# File generated by Flopy version 3.6.0 on 09/25/2024 at 09:11:51.
BEGIN options
END options

BEGIN griddata
  icelltype
    CONSTANT  0
  k
    INTERNAL  FACTOR  1.0
    4.47987386E-05  3.96381959E-05  3.92817475E-05  4.09871978E-05  3.61467687E-05  3.61829569E-05  4.26277445E-05  5.54112563E-05  5.49520971E-05  5.10051925E-05  3.58017471E-05  2.09308396E-05  1.15237104E-05  7.37831002E-06  5.40404496E-06  5.95840586E-06  6.65087076E-06  7.02647734E-06  7.49015782E-06  6.34758417E-06
    4.86484072E-06  4.26230995E-06  4.25114635E-06  4.93077270E-06  6.27646792E-06  9.08677491E-06  1.26414928E-05  1.81195268E-05  3.05586608E-05  5.86184046E-05  9.45351007E-05  1.54147587E-04  2.46970509E-04  3.30256890E-04  3.26741159E-04  3.22806520E-04  3.32034365E-04  2.90733781E-04  2.38454020E-04  2.40705397E-04
    2.32760053E-04  2.58469951E-04  2.45584617E-04  2.35808381E-04  2.52968460E-04  2.63666957E-04  2.66084936E-04  2.73992946E-04  3.13496744E-04  3.10674309E-04  2.85629008E-04  2.29054903E-04  1.74193768E-04  1.19553169E-04  8.52643152E-05  7.61227383E-05  6.27974174E-05  5.45112535E-05  5.73973534E-05  7.27857680E-05
    7.43542137E-05  8.18509798E-05  9.84138280E-05  9.64875626E-05  9.98533552E-05  1.13087576E-04  1.17471522E-04  1.23200015E-04  1.42924110E-04  1.78458599E-04  2.01524371E-04  2.02910184E-04  2.19594910E-04  1.86149468E-04  1.54687043E-04  1.30312508E-04  9.20539559E-05  5.95680804E-05  3.92961354E-05  3.26046705E-05
    3.59065754E-05  4.20752491E-05  5.06811408E-05  5.08090954E-05  5.14425072E-05  5.65225800E-05  5.57045501E-05  5.39544021E-05  5.58654370E-05  6.08628995E-05  5.61917207E-05  4.61305471E-05  3.98979172E-05  3.61031002E-05  3.25820038E-05  3.28511717E-05  3.97011687E-05  5.38284309E-05  7.44667425E-05  1.06898876E-04
    5.00866382E-05  4.21749398E-05  3.70965633E-05  4.02674246E-05  3.81654480E-05  3.65416767E-05  4.00745561E-05  4.88515116E-05  5.43758906E-05  5.49091245E-05  4.15758748E-05  2.51505913E-05  1.38141857E-05  8.52723153E-06  6.09392520E-06  6.18896685E-06  6.76290010E-06  7.64590314E-06  8.49599809E-06  8.58348543E-06
    6.60047159E-06  5.30394508E-06  4.89813762E-06  5.36898408E-06  5.83433146E-06  8.55981877E-06  1.27327107E-05  1.87709430E-05  2.97372631E-05  5.05128920E-05  8.27163224E-05  1.41675421E-04  2.38939535E-04  3.35392351E-04  3.52721572E-04  3.59190447E-04  3.92055035E-04  3.72467118E-04  3.17932597E-04  2.80841946E-04
    2.63233259E-04  2.89094741E-04  2.63225132E-04  2.34666121E-04  2.56994687E-04  2.49354353E-04  2.41244324E-04  2.55302413E-04  2.87162241E-04  2.96950545E-04  2.74053907E-04  2.32932929E-04  1.76186714E-04  1.23233174E-04  8.80036189E-05  7.56044626E-05  6.02266003E-05  5.16712148E-05  4.83960025E-05  5.81987461E-05
    6.38303476E-05  6.54081666E-05  7.94728371E-05  8.66509851E-05  8.87692965E-05  1.07761945E-04  1.18545428E-04  1.29660409E-04  1.39668915E-04  1.73437648E-04  2.09210642E-04  2.02248078E-04  2.07367127E-04  1.96427243E-04  1.59613726E-04  1.30286047E-04  1.05691040E-04  6.91344347E-05  4.66565245E-05  3.45975055E-05
    3.45991807E-05  3.77592834E-05  4.57174268E-05  4.70806255E-05  4.49181382E-05  5.03635407E-05  5.58200912E-05  5.15372047E-05  5.37065507E-05  5.92892661E-05  5.86043598E-05  5.21328033E-05  4.72935251E-05  3.95681134E-05  3.33921299E-05  3.49917062E-05  4.19328100E-05  5.52798350E-05  7.10346938E-05  9.59120025E-05
    5.47345221E-05  4.80204525E-05  3.72748967E-05  3.79610244E-05  3.94406046E-05  3.71529091E-05  3.76506446E-05  4.39113426E-05  4.91927044E-05  5.22386593E-05  4.77181822E-05  2.88891461E-05  1.65652586E-05  1.01808879E-05  7.45428967E-06  6.25286080E-06  6.92680157E-06  7.97221882E-06  9.44484004E-06  1.04196639E-05
    8.36945668E-06  6.70996161E-06  5.83623440E-06  5.87787973E-06  6.14284551E-06  8.08250004E-06  1.21868617E-05  1.82537664E-05  2.91624299E-05  4.81446721E-05  7.44003476E-05  1.27048509E-04  2.14880850E-04  3.12427549E-04  3.37395257E-04  3.92216704E-04  4.54499280E-04  4.92734317E-04  4.31593850E-04  3.59834416E-04
    3.14361923E-04  3.26721181E-04  2.93684854E-04  2.49782857E-04  2.65890003E-04  2.56431938E-04  2.41822345E-04  2.53572989E-04  2.69109570E-04  2.88406423E-04  2.61185327E-04  2.32004031E-04  1.74569504E-04  1.33547140E-04  9.96599283E-05  7.75078156E-05  6.12367283E-05  5.20574415E-05  4.59229593E-05  5.29072095E-05
    5.68594524E-05  5.72379576E-05  6.47705472E-05  7.60862196E-05  8.05958362E-05  1.01972734E-04  1.29787678E-04  1.48735694E-04  1.54591286E-04  1.69221346E-04  2.10220139E-04  2.08413889E-04  2.14422681E-04  2.08971790E-04  1.72538364E-04  1.34230324E-04  1.11012177E-04  7.96957700E-05  5.99553245E-05  3.84023547E-05
    3.47219230E-05  3.43928480E-05  4.29031432E-05  4.39579343E-05  4.11697103E-05  4.76100976E-05  5.67113758E-05  5.37912546E-05  5.52342248E-05  6.22207686E-05  6.23632619E-05  5.62978082E-05  5.31981074E-05  4.83494004E-05  3.83562811E-05  3.64274986E-05  4.55855691E-05  5.80726422E-05  7.74067421E-05  9.86713497E-05
    5.94751605E-05  5.03071411E-05  3.87272812E-05  3.95935478E-05  4.01886488E-05  3.64555868E-05  3.55538284E-05  3.98457762E-05  4.46422740E-05  4.75537853E-05  5.07906841E-05  3.51849759E-05  1.97780610E-05  1.16586268E-05  8.76599840E-06  6.77641748E-06  6.93112336E-06  8.10265962E-06  1.00842280E-05  1.22012865E-05
    1.08179122E-05  8.68793454E-06  7.21101392E-06  6.84936892E-06  6.74736541E-06  8.15357092E-06  1.15796078E-05  1.76365781E-05  2.85428785E-05  4.93162918E-05  7.70858929E-05  1.24465642E-04  2.08726704E-04  2.96532842E-04  3.22511705E-04  3.69721173E-04  4.79464143E-04  5.94466482E-04  5.52169037E-04  4.96448345E-04
    3.80444098E-04  3.87256238E-04  3.44806044E-04  2.78093916E-04  2.79300686E-04  2.83662918E-04  2.63946823E-04  2.66521077E-04  2.71876615E-04  2.87466471E-04  2.56419685E-04  2.25076947E-04  1.67431015E-04  1.39186799E-04  1.08332307E-04  8.14359983E-05  6.36222478E-05  4.98773449E-05  4.44538071E-05  4.76963768E-05
    5.14862971E-05  5.08726866E-05  5.64180166E-05  6.54678063E-05  7.69550676E-05  9.45391824E-05  1.32309160E-04  1.61515815E-04  1.74367645E-04  1.78299732E-04  2.05049459E-04  2.12426263E-04  2.26372217E-04  2.12017754E-04  1.84097837E-04  1.46388319E-04  1.12947647E-04  9.15945282E-05  7.58639770E-05  4.87392759E-05
    3.71884351E-05  3.23453775E-05  3.76420848E-05  4.31513197E-05  4.24753225E-05  5.20474192E-05  5.91904624E-05  6.22515557E-05  6.04687691E-05  6.69132393E-05  6.60105983E-05  6.08167218E-05  5.72140359E-05  5.56393199E-05  5.02493467E-05  4.10123776E-05  4.97684715E-05  6.22820910E-05  8.65814848E-05  1.02818722E-04
    6.09375508E-05  5.17049319E-05  4.17524511E-05  3.90476411E-05  4.08353054E-05  3.75968224E-05  3.56288340E-05  3.96106272E-05  4.12111807E-05  4.24017564E-05  4.54159042E-05  4.09660290E-05  2.46843249E-05  1.38235184E-05  9.21408098E-06  8.00048562E-06  7.36295619E-06  8.86080061E-06  1.04549927E-05  1.35342034E-05
    1.34623960E-05  1.15493171E-05  9.28369190E-06  8.46721137E-06  8.19569117E-06  8.77160715E-06  1.23605273E-05  1.80481383E-05  2.65493225E-05  4.63080140E-05  7.78450382E-05  1.29633651E-04  2.16176740E-04  3.01802392E-04  3.25142034E-04  3.55740603E-04  4.57544304E-04  6.12234038E-04  6.32783312E-04  6.08818083E-04
    4.78077292E-04  4.18861833E-04  4.09687961E-04  3.35935827E-04  3.07844121E-04  3.13906122E-04  2.99604492E-04  2.64724130E-04  2.79097858E-04  2.77154974E-04  2.55383690E-04  2.18022117E-04  1.65138999E-04  1.27092202E-04  1.07484490E-04  8.10244800E-05  5.97450433E-05  4.71114874E-05  4.45729680E-05  4.21856398E-05
    4.52520663E-05  4.72151167E-05  5.27155254E-05  6.25772692E-05  7.17473084E-05  9.26405144E-05  1.26383466E-04  1.68682296E-04  1.90257218E-04  1.89766601E-04  1.92461049E-04  2.15297943E-04  2.17881977E-04  2.24172584E-04  1.90152663E-04  1.56469280E-04  1.21007234E-04  1.07220331E-04  8.66539009E-05  6.18329117E-05
    4.07292121E-05  3.48397736E-05  3.39588597E-05  3.93955581E-05  4.10434647E-05  5.27404362E-05  6.21383705E-05  7.04486923E-05  7.02833681E-05  7.21628038E-05  7.12498717E-05  6.04208039E-05  5.77957858E-05  5.96026259E-05  5.94446191E-05  5.06838588E-05  5.22475099E-05  6.56238767E-05  8.85762925E-05  1.04578623E-04
    6.95973278E-05  5.68812045E-05  4.62683114E-05  4.20603992E-05  4.24730328E-05  4.14263764E-05  3.49066792E-05  3.65863647E-05  3.75499249E-05  3.63477202E-05  3.94359926E-05  4.17648966E-05  3.05690341E-05  1.67991973E-05  1.01799244E-05  9.17300693E-06  8.47547941E-06  1.03815524E-05  1.25276859E-05  1.46515959E-05
    1.58507056E-05  1.42654645E-05  1.20420669E-05  1.05367358E-05  1.04817303E-05  1.04526531E-05  1.33968704E-05  1.85016681E-05  2.66333901E-05  4.08530005E-05  7.37929903E-05  1.27782204E-04  2.28335248E-04  3.37934474E-04  3.85717621E-04  3.75852786E-04  4.21312108E-04  5.78559525E-04  6.73341661E-04  6.47127030E-04
    5.42055467E-04  4.84719915E-04  4.78923600E-04  4.33791928E-04  3.74117776E-04  3.78989749E-04  3.31019432E-04  2.72592256E-04  2.81971949E-04  2.79784354E-04  2.60073066E-04  2.07626311E-04  1.58795959E-04  1.24979447E-04  1.01743957E-04  7.80639645E-05  5.75714173E-05  4.65092458E-05  4.23206800E-05  3.94225915E-05
    4.03609949E-05  4.79676818E-05  5.30780051E-05  6.35758458E-05  7.55658016E-05  9.85253841E-05  1.26169545E-04  1.68614933E-04  2.06726007E-04  1.98874789E-04  1.95449420E-04  2.06528233E-04  2.33854680E-04  2.46599728E-04  2.02055804E-04  1.66966154E-04  1.44733574E-04  1.18995650E-04  9.38757799E-05  7.31089900E-05
    5.24970847E-05  4.15142392E-05  3.63705451E-05  3.68564722E-05  4.28829403E-05  5.05005602E-05  6.33400019E-05  7.65802345E-05  7.67143448E-05  7.78913462E-05  7.84842083E-05  6.52244679E-05  5.76231985E-05  5.94163992E-05  6.08398138E-05  5.69683672E-05  5.19725694E-05  6.19529198E-05  8.57006049E-05  9.60185969E-05
    7.69024114E-05  6.89733680E-05  5.30508955E-05  4.35410339E-05  4.29118982E-05  4.28411458E-05  3.51394864E-05  3.31380985E-05  3.40531519E-05  3.19275780E-05  3.34430799E-05  3.66456788E-05  3.13476362E-05  2.07704293E-05  1.25271402E-05  1.03484337E-05  1.04383529E-05  1.23966908E-05  1.44775272E-05  1.68727561E-05
    1.85788818E-05  1.71149218E-05  1.56452644E-05  1.39992398E-05  1.33322125E-05  1.34966198E-05  1.58980562E-05  1.96407359E-05  2.61140140E-05  3.74370234E-05  6.62425150E-05  1.15613467E-04  2.22319778E-04  3.76974856E-04  4.51914194E-04  4.69472217E-04  4.48818772E-04  5.59969385E-04  6.75299497E-04  6.46405822E-04
    5.89025376E-04  5.28545012E-04  5.70335294E-04  5.66771088E-04  4.65980028E-04  4.38393868E-04  3.67088083E-04  2.85713270E-04  2.69330462E-04  2.64167180E-04  2.47431298E-04  1.94667733E-04  1.48327077E-04  1.22157476E-04  9.52304214E-05  7.54477106E-05  5.89319713E-05  4.61133991E-05  3.94309230E-05  3.63417908E-05
    3.76585804E-05  4.28507657E-05  5.32083790E-05  6.17667730E-05  7.69961398E-05  9.94372168E-05  1.26282953E-04  1.65359733E-04  2.06243343E-04  2.13712579E-04  2.06153368E-04  2.21985417E-04  2.52479043E-04  2.70325183E-04  2.21992583E-04  1.79876431E-04  1.49985897E-04  1.23086072E-04  9.82118013E-05  7.77559129E-05
    6.55369462E-05  5.02786124E-05  4.14910597E-05  3.82094083E-05  4.14868981E-05  4.82876002E-05  5.96854833E-05  7.63590337E-05  7.80317269E-05  7.90262333E-05  7.97310358E-05  6.78651005E-05  5.63744247E-05  5.28296533E-05  5.60931247E-05  5.82292646E-05  5.39791494E-05  5.69104818E-05  7.22906816E-05  8.96891236E-05
    8.58001502E-05  8.17808442E-05  6.46745107E-05  4.85287113E-05  4.27125623E-05  4.21079357E-05  3.60849905E-05  3.16630805E-05  3.24912455E-05  2.93354332E-05  2.90653495E-05  3.02399050E-05  2.95813610E-05  2.35230866E-05  1.60904014E-05  1.18891487E-05  1.21124462E-05  1.41880793E-05  1.63265665E-05  1.89623696E-05
    2.09585271E-05  2.00057516E-05  1.93853211E-05  1.94176324E-05  1.71890464E-05  1.75465885E-05  1.84963080E-05  2.14339589E-05  2.50812860E-05  3.55213336E-05  5.49677841E-05  1.04588790E-04  2.10167527E-04  3.87643652E-04  5.21648923E-04  5.81786428E-04  5.57052137E-04  6.17816657E-04  6.85166465E-04  6.77298016E-04
    6.33642354E-04  5.63666475E-04  5.87021194E-04  6.48898461E-04  6.06246267E-04  5.21605869E-04  4.12604645E-04  3.08576241E-04  2.76405186E-04  2.50606279E-04  2.26812641E-04  1.85862179E-04  1.44574081E-04  1.15881058E-04  9.69936472E-05  6.98527472E-05  5.64560298E-05  4.52829656E-05  3.69019941E-05  3.31663764E-05
    3.40980591E-05  3.89496847E-05  4.71007553E-05  5.70992553E-05  7.32768087E-05  9.66936046E-05  1.18811913E-04  1.66048003E-04  1.99001655E-04  2.26781065E-04  2.20517487E-04  2.46804408E-04  2.72047886E-04  2.78514524E-04  2.56220366E-04  2.05157143E-04  1.66832130E-04  1.24978923E-04  1.04108569E-04  8.30385345E-05
    7.28431769E-05  6.39706961E-05  5.17526126E-05  4.42431748E-05  4.28268143E-05  4.83004436E-05  5.79997652E-05  7.05593622E-05  7.75792479E-05  7.78443618E-05  8.15203272E-05  7.31323977E-05  5.87274867E-05  4.90788741E-05  5.05697141E-05  5.50074534E-05  5.89521312E-05  5.25483495E-05  5.90348698E-05  7.87445945E-05
    9.91302657E-05  9.16526054E-05  7.75661357E-05  5.79664220E-05  4.34600851E-05  4.12545010E-05  3.62159789E-05  3.57913873E-05  3.24397687E-05  2.89761138E-05  2.78084205E-05  2.71265636E-05  2.72775152E-05  2.41209359E-05  1.83535268E-05  1.39887742E-05  1.36770868E-05  1.53119266E-05  1.72949063E-05  2.18804868E-05
    2.26633076E-05  2.26209597E-05  2.25150408E-05  2.17477916E-05  2.14572928E-05  2.09352111E-05  2.14208959E-05  2.19074795E-05  2.39962648E-05  3.20466738E-05  4.54917964E-05  9.34765548E-05  2.08570785E-04  3.94814428E-04  5.77699141E-04  6.90666693E-04  7.19251307E-04  7.61928154E-04  7.22321163E-04  7.06536451E-04
    6.69575503E-04  6.56975422E-04  6.31577010E-04  7.34387644E-04  8.06533539E-04  6.89631645E-04  5.06464055E-04  3.66462052E-04  3.00337115E-04  2.47404913E-04  2.24767479E-04  1.70086124E-04  1.39065207E-04  1.24008201E-04  9.67848111E-05  7.28786613E-05  5.39794507E-05  4.30057240E-05  3.43620587E-05  3.00004960E-05
    3.15341980E-05  3.61996160E-05  4.19507047E-05  5.22354603E-05  6.95921931E-05  9.22082870E-05  1.11509490E-04  1.51383219E-04  1.87200717E-04  2.22231599E-04  2.53253174E-04  2.73192533E-04  2.96200241E-04  2.94055701E-04  2.79217122E-04  2.41391625E-04  1.92031699E-04  1.45303030E-04  1.08183451E-04  8.63391771E-05
    7.65059427E-05  7.57216803E-05  6.39532432E-05  5.24141403E-05  4.59572627E-05  4.75452416E-05  5.72991604E-05  6.32698938E-05  6.98723841E-05  7.68246142E-05  7.56759004E-05  7.47833220E-05  6.29954261E-05  4.74834611E-05  4.54193001E-05  4.79443862E-05  5.61689572E-05  4.85416876E-05  5.20040518E-05  6.98633220E-05
    1.25076681E-04  1.05136751E-04  9.13936764E-05  6.88468883E-05  5.08688708E-05  4.15718177E-05  3.56999839E-05  3.56818528E-05  3.33502811E-05  2.86721701E-05  2.55998029E-05  2.85035902E-05  2.65597582E-05  2.54947411E-05  1.99587322E-05  1.69677580E-05  1.53068878E-05  1.64834716E-05  1.89884599E-05  2.33476425E-05
    2.69232397E-05  2.54089977E-05  2.56309853E-05  2.42300574E-05  2.54119030E-05  2.46158612E-05  2.48138196E-05  2.48487151E-05  2.43855201E-05  3.05640389E-05  4.52873606E-05  8.83312251E-05  2.02693460E-04  3.90051368E-04  6.38911966E-04  7.82181556E-04  8.60227476E-04  8.63854416E-04  8.28895950E-04  7.76305479E-04
    7.19992171E-04  7.23740771E-04  7.17076811E-04  8.23654454E-04  9.76302076E-04  9.28100846E-04  6.67603018E-04  4.50942069E-04  3.46263695E-04  2.63163351E-04  2.28298859E-04  1.76575056E-04  1.36893812E-04  1.25533604E-04  1.00976930E-04  7.56741454E-05  5.71525593E-05  4.18202614E-05  3.29353120E-05  2.88685593E-05
    3.10442104E-05  3.60952306E-05  4.10197017E-05  5.10384964E-05  6.49717794E-05  8.54498950E-05  1.03378283E-04  1.34162888E-04  1.78121869E-04  2.19733089E-04  2.80366916E-04  3.24236117E-04  3.34175605E-04  3.35809456E-04  3.19253658E-04  2.86504687E-04  2.39269624E-04  1.78207461E-04  1.21455084E-04  9.71571371E-05
    8.35963896E-05  8.62662412E-05  7.24006563E-05  6.22022321E-05  5.29296718E-05  4.70440418E-05  5.36724953E-05  5.99451171E-05  6.68516909E-05  7.26893179E-05  7.28713053E-05  7.17640100E-05  6.72589151E-05  4.98412853E-05  4.11534525E-05  4.06601168E-05  4.61414388E-05  4.74727964E-05  4.99056085E-05  6.28983933E-05
    1.45121396E-04  1.18495429E-04  1.00041862E-04  8.02935854E-05  5.97873174E-05  4.47410968E-05  3.55415557E-05  3.18155815E-05  3.11431354E-05  2.74162931E-05  2.40310274E-05  2.63321066E-05  2.63442292E-05  2.50974014E-05  2.11906365E-05  1.74233156E-05  1.59133443E-05  1.57802214E-05  1.84907690E-05  2.23581169E-05
    2.82715944E-05  2.72989779E-05  2.87015043E-05  2.64197857E-05  2.88693642E-05  2.83532536E-05  2.78151806E-05  2.71681529E-05  2.62387558E-05  3.05753560E-05  4.59522240E-05  8.22055451E-05  1.80534543E-04  3.69320410E-04  6.08448474E-04  8.29578905E-04  9.29470863E-04  8.89761768E-04  8.42851175E-04  7.87750994E-04
    7.90234320E-04  7.97162539E-04  7.78200903E-04  8.75440119E-04       0.00104611       0.00112985  9.29300616E-04  5.74672125E-04  4.01542480E-04  3.11670348E-04  2.50873726E-04  2.02882722E-04  1.51138471E-04  1.24054522E-04  1.10405167E-04  8.11806739E-05  5.75206441E-05  4.42510973E-05  3.20160986E-05  2.92408336E-05
    3.18369289E-05  3.79945622E-05  4.44216483E-05  5.21425903E-05  6.47408528E-05  7.79061191E-05  8.89499028E-05  1.13912302E-04  1.60665442E-04  2.20946427E-04  2.90762390E-04  3.61728836E-04  4.10124641E-04  3.90574184E-04  3.64539869E-04  3.27727810E-04  2.91841739E-04  2.04717711E-04  1.42730830E-04  1.08944058E-04
    9.78873389E-05  9.58765084E-05  8.29466004E-05  6.93081294E-05  6.04813488E-05  4.98906521E-05  5.02992182E-05  5.61200435E-05  6.27345106E-05  6.78911419E-05  6.95217930E-05  6.78676312E-05  6.31735763E-05  4.94409851E-05  3.75054312E-05  3.49709965E-05  3.61180318E-05  4.29095822E-05  4.87572669E-05  5.75146625E-05
    1.84979514E-04  1.39388691E-04  1.09784653E-04  9.14133942E-05  7.03762872E-05  5.22598901E-05  4.00694038E-05  3.15735874E-05  2.91385562E-05  2.71066591E-05  2.38531966E-05  2.42392343E-05  2.53797858E-05  2.54392255E-05  2.22953543E-05  1.73065532E-05  1.61611217E-05  1.46208401E-05  1.69501625E-05  2.10103090E-05
    2.76082697E-05  2.98187886E-05  2.89114614E-05  2.94164917E-05  3.17797526E-05  3.30040810E-05  3.19171272E-05  3.14122033E-05  2.87732816E-05  3.41875598E-05  4.59128608E-05  7.63583884E-05  1.67157193E-04  3.71490034E-04  6.10635515E-04  8.68760825E-04  9.61986327E-04  9.39595534E-04  9.10603541E-04  8.45135353E-04
    8.04010652E-04  9.07143927E-04  8.50156439E-04  9.20466078E-04       0.00114770       0.00127489       0.00121798  7.92626941E-04  4.90569198E-04  3.73709014E-04  3.01745429E-04  2.28891900E-04  1.72782161E-04  1.36226164E-04  1.13415989E-04  8.87794936E-05  6.10351018E-05  4.62489202E-05  3.34253020E-05  2.84820121E-05
    3.32339773E-05  4.15381499E-05  4.98558333E-05  5.82414867E-05  6.94503013E-05  7.23785305E-05  7.99535373E-05  9.51289077E-05  1.33343696E-04  2.05731231E-04  2.86889045E-04  3.88748629E-04  4.82846609E-04  4.58949192E-04  4.26011747E-04  3.69462853E-04  3.27796005E-04  2.40298314E-04  1.69250704E-04  1.28307181E-04
    1.13075809E-04  1.01897958E-04  9.55298201E-05  7.99298131E-05  6.63212032E-05  5.54336956E-05  5.06549701E-05  5.03083423E-05  5.40179335E-05  5.87679902E-05  6.06528929E-05  6.21023901E-05  5.54725107E-05  4.44803376E-05  3.33753589E-05  3.02888938E-05  2.95167366E-05  3.28696106E-05  4.53013285E-05  5.50411625E-05
    2.22404057E-04  1.68531648E-04  1.24574720E-04  9.63570853E-05  7.42254343E-05  5.49302840E-05  4.34312903E-05  3.33861719E-05  2.90816954E-05  2.71229250E-05  2.39142411E-05  2.14034178E-05  2.21322279E-05  2.39407202E-05  2.34046879E-05  1.92504002E-05  1.64578598E-05  1.52673820E-05  1.60072635E-05  1.99617046E-05
    2.71016223E-05  3.09063936E-05  2.98537210E-05  3.12267349E-05  3.48675498E-05  3.72050022E-05  3.96947960E-05  3.56975051E-05  3.50723785E-05  3.67243813E-05  4.78968485E-05  7.31696233E-05  1.53990259E-04  3.52287252E-04  6.41724134E-04  8.91780923E-04       0.00104096  9.97444874E-04       0.00106041       0.00101857
    9.51043008E-04       0.00101679  9.86885758E-04  9.88079646E-04       0.00124294       0.00144115       0.00149643       0.00111722  7.29035345E-04  4.83796463E-04  3.70075207E-04  2.84014822E-04  2.10233766E-04  1.60158545E-04  1.23831603E-04  1.01261454E-04  7.01406922E-05  5.18405415E-05  3.55047350E-05  3.11615063E-05
    3.49178473E-05  4.52808776E-05  5.20680441E-05  5.67057828E-05  6.86440686E-05  7.04551304E-05  7.35722399E-05  8.69217537E-05  1.09863176E-04  1.72227676E-04  2.69371383E-04  4.04580259E-04  5.43967199E-04  5.41332750E-04  4.75272870E-04  4.21274940E-04  3.77754066E-04  2.77513228E-04  2.11856263E-04  1.67727072E-04
    1.34763310E-04  1.15799310E-04  1.11128966E-04  9.08170502E-05  7.77527842E-05  6.18276676E-05  5.70584467E-05  5.35736884E-05  4.85345590E-05  5.04211431E-05  5.40268281E-05  5.45607268E-05  5.09893068E-05  4.02635154E-05  3.09063762E-05  2.71426980E-05  2.64567654E-05  2.85178438E-05  3.83423641E-05  5.20965668E-05
    2.47326360E-04  2.06747151E-04  1.55509443E-04  1.09326882E-04  8.13381215E-05  5.91413665E-05  4.96046569E-05  3.74977311E-05  2.85803066E-05  2.72530180E-05  2.61982078E-05  2.01318434E-05  1.84191404E-05  2.01734925E-05  2.22140022E-05  2.05932789E-05  1.75044087E-05  1.65959321E-05  1.57857584E-05  1.92631327E-05
    2.50390637E-05  2.93260876E-05  3.11291932E-05  3.21467689E-05  3.60183917E-05  3.99164324E-05  4.34205978E-05  4.22686323E-05  4.02867060E-05  4.04349873E-05  4.91075910E-05  7.10344579E-05  1.38798400E-04  3.07445137E-04  6.12412112E-04  9.34451621E-04       0.00114527       0.00103656       0.00116428       0.00122132
         0.00123837       0.00117750       0.00113770       0.00114781       0.00132103       0.00163280       0.00173253       0.00147367       0.00100567  6.80084776E-04  4.77069000E-04  3.55018296E-04  2.71032920E-04  1.82187262E-04  1.38807501E-04  1.12826421E-04  8.72392633E-05  6.29544148E-05  4.09033820E-05  3.45348818E-05
    3.52967983E-05  4.87140753E-05  5.51176443E-05  5.68352240E-05  6.15022257E-05  6.89004976E-05  6.78396238E-05  8.71762638E-05  1.02649255E-04  1.45932698E-04  2.41932239E-04  3.98733316E-04  5.64413758E-04  6.45576613E-04  5.40208243E-04  4.72493977E-04  4.25542119E-04  3.32543783E-04  2.39592197E-04  2.08480576E-04
    1.75022864E-04  1.45384483E-04  1.33262741E-04  1.05865961E-04  8.73433260E-05  7.10671147E-05  6.11622206E-05  5.72032628E-05  5.21460130E-05  4.67936869E-05  4.75534329E-05  4.78512950E-05  4.57108410E-05  3.93405545E-05  3.01717990E-05  2.43065124E-05  2.41814926E-05  2.57191357E-05  3.35233396E-05  4.57410279E-05
    2.68548445E-04  2.39621425E-04  1.91081791E-04  1.35339591E-04  1.00908696E-04  6.59601249E-05  5.30052094E-05  4.42013020E-05  3.40334113E-05  2.96786629E-05  2.72228942E-05  2.23270031E-05  1.82615572E-05  1.78424654E-05  1.95682184E-05  1.95752482E-05  1.85223072E-05  1.82725789E-05  1.68699299E-05  1.83572793E-05
    2.15107060E-05  2.60986330E-05  3.14543748E-05  3.27999787E-05  3.63495505E-05  4.11733589E-05  4.32557056E-05  4.86955279E-05  4.40934310E-05  4.50522740E-05  5.23622704E-05  7.33295113E-05  1.25933584E-04  2.76142452E-04  5.60874674E-04  9.14481359E-04       0.00123716       0.00115094       0.00124308       0.00139012
         0.00150615       0.00143892       0.00131973       0.00135462       0.00152750       0.00177051       0.00193423       0.00177916       0.00126049  9.04153887E-04  6.10902623E-04  4.31129446E-04  3.14589163E-04  2.16157620E-04  1.56473211E-04  1.17424777E-04  9.71333177E-05  7.24500944E-05  4.71748288E-05  3.68191815E-05
    3.64829620E-05  4.77006861E-05  5.49769172E-05  5.90523438E-05  5.78096010E-05  6.36205245E-05  6.64136274E-05  7.88738020E-05  1.02977657E-04  1.27463895E-04  2.08693186E-04  3.33993217E-04  4.83157092E-04  6.62002162E-04  6.00174956E-04  4.95234154E-04  4.28624485E-04  3.56536329E-04  2.58342632E-04  2.27716450E-04
    2.10078219E-04  1.80996469E-04  1.57673210E-04  1.26427263E-04  1.02991310E-04  8.26851100E-05  6.69485826E-05  6.04699071E-05  5.57587642E-05  4.74478612E-05  4.46360550E-05  3.99056958E-05  3.82590823E-05  3.68942412E-05  3.06180107E-05  2.26915360E-05  2.21898197E-05  2.37431795E-05  2.96326759E-05  4.00845347E-05
    2.72505784E-04  2.58445375E-04  2.19300716E-04  1.70571313E-04  1.23721319E-04  8.10167809E-05  5.71273261E-05  4.89396970E-05  4.19094019E-05  3.58453776E-05  2.91911993E-05  2.60591819E-05  1.92378893E-05  1.68743525E-05  1.72101454E-05  1.84260209E-05  1.98062581E-05  1.85051293E-05  1.70873110E-05  1.76736684E-05
    1.93304282E-05  2.19253401E-05  2.84887036E-05  3.10751542E-05  3.49645471E-05  4.21816272E-05  4.60630592E-05  5.06556363E-05  4.78738649E-05  4.71564324E-05  5.28630309E-05  7.32603601E-05  1.16524628E-04  2.35318592E-04  4.98196798E-04  9.05255251E-04       0.00124561       0.00126907       0.00136458       0.00151210
         0.00167395       0.00172750       0.00161127       0.00158123       0.00172628       0.00196719       0.00224234       0.00210083       0.00163908       0.00120250  7.57647380E-04  5.32554849E-04  3.62848988E-04  2.69321516E-04  1.82442625E-04  1.31725618E-04  1.04678140E-04  7.93005458E-05  5.42257376E-05  4.01893642E-05
    3.88173192E-05  4.64457817E-05  5.36620655E-05  6.00635243E-05  6.14861803E-05  6.03420854E-05  6.71010077E-05  7.69045514E-05  1.00868686E-04  1.19974078E-04  1.76952012E-04  2.82755840E-04  4.28119797E-04  6.01494219E-04  6.60717594E-04  5.46255862E-04  4.41856320E-04  3.53627167E-04  2.74981795E-04  2.35052296E-04
    2.45140780E-04  2.14937649E-04  1.94488613E-04  1.54643482E-04  1.25017964E-04  9.63209443E-05  7.80127873E-05  6.78108186E-05  5.86367766E-05  5.24534156E-05  4.53394780E-05  3.62508418E-05  3.17004922E-05  3.16592842E-05  2.81387543E-05  2.26939002E-05  2.13805455E-05  2.29128677E-05  2.69786117E-05  3.50004553E-05
    2.79894375E-04  2.75617074E-04  2.44788801E-04  1.99362618E-04  1.47649955E-04  9.78641471E-05  7.00674867E-05  6.12446157E-05  5.21901812E-05  4.47096794E-05  3.54364751E-05  2.96537541E-05  2.19064102E-05  1.70413252E-05  1.63571010E-05  1.77545386E-05  2.21583426E-05  2.11716509E-05  1.72891612E-05  1.64919184E-05
    1.76750221E-05  1.87333109E-05  2.35680408E-05  2.83807863E-05  3.16579517E-05  4.01040781E-05  4.56850523E-05  4.92886326E-05  5.13547088E-05  4.71206211E-05  5.16488163E-05  6.92862709E-05  1.13407614E-04  1.98039386E-04  4.05936061E-04  8.10511480E-04       0.00121386       0.00130302       0.00137449       0.00154515
         0.00186554       0.00207399       0.00192357       0.00176659       0.00181159       0.00203864       0.00245010       0.00250687       0.00190335       0.00148654  9.67086185E-04  6.40805880E-04  4.24649074E-04  3.07188226E-04  2.19763622E-04  1.54549415E-04  1.10134000E-04  8.27799875E-05  5.86765797E-05  4.44668909E-05
    3.97432778E-05  4.54140481E-05  5.48018222E-05  5.68538847E-05  5.51923123E-05  5.56484658E-05  6.34605782E-05  7.30831424E-05  9.35701875E-05  1.15371803E-04  1.61926125E-04  2.41114379E-04  3.72268125E-04  5.09154014E-04  6.11450696E-04  5.72372589E-04  4.44698967E-04  3.37852812E-04  2.71143042E-04  2.40825820E-04
    2.67676083E-04  2.43582965E-04  2.23209963E-04  1.75072375E-04  1.40888611E-04  1.23027578E-04  9.68673913E-05  8.13199959E-05  6.56242924E-05  6.09495660E-05  5.09678360E-05  3.53598371E-05  2.74707956E-05  2.66729728E-05  2.52218076E-05  2.21615706E-05  2.07122282E-05  2.20244066E-05  2.48629115E-05  3.17161060E-05
    2.88247845E-04  2.77215605E-04  2.52150473E-04  2.10307162E-04  1.56289108E-04  1.09104145E-04  8.38249921E-05  7.20304516E-05  6.44261716E-05  5.74732785E-05  4.44836024E-05  3.30466658E-05  2.61247887E-05  1.82673064E-05  1.65153013E-05  1.73563871E-05  2.31715038E-05  2.45460694E-05  1.88479750E-05  1.55571153E-05
    1.63918635E-05  1.55166698E-05  1.79379227E-05  2.32572933E-05  2.70305992E-05  3.47904507E-05  4.28958446E-05  4.59821038E-05  4.95408095E-05  4.95890433E-05  4.94761583E-05  6.38787630E-05  1.03524975E-04  1.81649815E-04  3.44154665E-04  6.91995440E-04       0.00110987       0.00127341       0.00139406       0.00155711
         0.00196382       0.00229864       0.00224983       0.00203776       0.00187191       0.00200085       0.00251257       0.00273583       0.00229820       0.00180834       0.00121748  7.59352944E-04  4.86280225E-04  3.37988412E-04  2.66784613E-04  1.85266391E-04  1.29694678E-04  9.31161761E-05  6.34581592E-05  4.90869119E-05
    4.28360108E-05  4.42014387E-05  5.40137619E-05  5.91280679E-05  5.23956167E-05  5.32880812E-05  5.86364788E-05  6.75090399E-05  8.33240208E-05  1.07265652E-04  1.46730389E-04  2.17367786E-04  3.22940594E-04  4.69588139E-04  5.63642212E-04  5.22846299E-04  4.46702469E-04  3.48432930E-04  2.69979657E-04  2.47675127E-04
    2.69057107E-04  2.73986541E-04  2.41290537E-04  1.96834385E-04  1.58656434E-04  1.43502774E-04  1.24351307E-04  1.02534562E-04  8.02619403E-05  7.07169992E-05  5.72571657E-05  3.89877831E-05  2.81544208E-05  2.30429630E-05  2.24272481E-05  2.08738763E-05  1.87477532E-05  2.03929327E-05  2.25997829E-05  3.03498954E-05
    2.81241304E-04  2.72825498E-04  2.50953752E-04  2.23586599E-04  1.69010278E-04  1.21547168E-04  1.01691516E-04  9.18030862E-05  8.11262302E-05  6.87638482E-05  5.94807220E-05  4.26140858E-05  3.07690272E-05  2.13248903E-05  1.66865571E-05  1.74738275E-05  2.27845690E-05  2.66050262E-05  2.09435357E-05  1.57133206E-05
    1.54042435E-05  1.38082115E-05  1.42943533E-05  1.80358067E-05  2.30611544E-05  2.81817198E-05  3.55044978E-05  4.28794155E-05  4.67746180E-05  5.17239693E-05  5.22381251E-05  6.19789086E-05  9.75079524E-05  1.65951997E-04  3.05989049E-04  5.81213678E-04  9.66522799E-04       0.00120582       0.00136699       0.00162971