# File generated by Flopy version 3.7.0 on 07/09/2024 at 15:43:38.
BEGIN options
END options

BEGIN griddata
  strt
    INTERNAL  FACTOR  1.0
        15.00000000      15.00000000      15.00000000      15.00000000      15.00000000      15.00000000      15.00000000      15.00000000      15.00000000      15.00000000      15.00000000      15.00000000      15.00000000      15.00000000      15.00000000      15.00000000      15.00000000      15.00000000      15.00000000      15.00000000
        15.00000000      15.00000000      15.00000000      15.00000000      15.00000000      15.00000000      15.00000000      15.00000000      15.00000000      15.00000000      15.00000000      15.00000000      15.00000000      15.00000000      15.00000000      15.00000000      15.00000000      15.00000000      15.00000000      15.00000000
        15.00000000      15.00000000      15.00000000      15.00000000      15.00000000      15.00000000      15.00000000      15.00000000      15.00000000      15.00000000      15.00000000      15.00000000      15.00000000      15.00000000      15.00000000      15.00000000      15.00000000      15.00000000      15.00000000      15.00000000
        15.00000000      15.00000000      15.00000000      15.00000000      15.00000000      15.00000000      15.00000000      15.00000000      15.00000000      15.00000000      15.00000000      15.00000000      15.00000000      15.00000000      15.00000000      15.00000000      15.00000000      15.00000000      15.00000000      15.00000000
        15.00000000      15.00000000      15.00000000      15.00000000      15.00000000      15.00000000      15.00000000      15.00000000      15.00000000      15.00000000      15.00000000      15.00000000      15.00000000      15.00000000      15.00000000      15.00000000      15.00000000      15.00000000      15.00000000      15.00000000
        15.04856178      15.04941104      15.05014834      15.04913319      15.04606357      15.04158707      15.03642572      15.03210886      15.02811861      15.02383892      15.01996685      15.01710612      15.01466728      15.01276733      15.01168268      15.01122089      15.01118443      15.01127159      15.01164064      15.01197887
        15.01213209      15.01233197      15.01261549      15.01332825      15.01425727      15.01544939      15.01731856      15.01991690      15.02307925      15.02622424      15.02881336      15.03060711      15.03229877      15.03460505      15.03757989      15.03979095      15.04050110      15.04074198      15.04067149      15.04009542
        15.03939794      15.03738292      15.03438161      15.03160682      15.02932761      15.02795028      15.02760496      15.02839639      15.03016503      15.03156647      15.03239031      15.03196603      15.03077141      15.02900272      15.02707130      15.02516841      15.02461100      15.02511542      15.02484761      15.02357245
        15.02185520      15.02036334      15.01960809      15.01934249      15.01964506      15.01951633      15.01858231      15.01630141      15.01060382      14.99502969      15.00981175      15.01618971      15.02090018      15.02491498      15.02734049      15.02857697      15.02924941      15.02947524      15.02945703      15.03038983
        15.03229051      15.03547160      15.04022657      15.04608070      15.05141892      15.05601174      15.06076079      15.06494226      15.07006895      15.07602802      15.08329253      15.09251188      15.10046857      15.10455048      15.10681951      15.10533120      15.10246766      15.09991370      15.09977375      15.10212415
        15.08955509      15.08970825      15.08851069      15.08478069      15.07819609      15.07059079      15.06301666      15.05607088      15.04978160      15.04324138      15.03697087      15.03210719      15.02854173      15.02612095      15.02475853      15.02435672      15.02456225      15.02497357      15.02527702      15.02539800
        15.02535584      15.02555360      15.02615272      15.02730277      15.02913381      15.03140671      15.03474859      15.03960923      15.04489403      15.04966502      15.05343953      15.05659470      15.06025215      15.06505049      15.07029943      15.07395637      15.07729944      15.08077099      15.08295068      15.08404583
        15.08373130      15.08150762      15.07802324      15.07405802      15.07094085      15.07034704      15.07275040      15.07567082      15.07836200      15.07989747      15.07929928      15.07731210      15.07319050      15.06768908      15.06448758      15.06288544      15.06158371      15.05985297      15.05653258      15.05273109
        15.04993859      15.04852009      15.04810499      15.04863464      15.04919162      15.04931500      15.04798748      15.04569971      15.04240976      15.03817126      15.04449519      15.05058924      15.05564516      15.05887443      15.06047699      15.06120665      15.06104289      15.06025393      15.05980930      15.06215656
        15.06651986      15.07201290      15.07946141      15.08763418      15.09673412      15.10615763      15.11522212      15.12382165      15.13322041      15.14498519      15.15735429      15.17040708      15.18050634      15.18606065      15.18886311      15.19037652      15.19373416      15.20039359      15.20919527      15.21457317
        15.11819947      15.11606800      15.11181568      15.10584633      15.09826805      15.09028146      15.08274038      15.07515715      15.06776334      15.06037148      15.05368026      15.04813734      15.04408751      15.04151324      15.04006246      15.03943405      15.03930182      15.03916048      15.03871430      15.03812463
        15.03790411      15.03834845      15.03931388      15.04082744      15.04329393      15.04706913      15.05228347      15.05875947      15.06527767      15.07088556      15.07604774      15.08128575      15.08727749      15.09423171      15.10174624      15.10902546      15.11716008      15.12503048      15.13205028      15.13847506
        15.14117813      15.14031394      15.13816451      15.13694482      15.13814472      15.14135155      15.14386112      15.14600599      15.14744463      15.14560760      15.14044220      15.13383631      15.12642072      15.11970794      15.11373769      15.10999020      15.10614751      15.10101834      15.09509472      15.09046480
        15.08773142      15.08724927      15.08803476      15.08985357      15.09086316      15.09087676      15.08968013      15.08751677      15.08554230      15.08405626      15.08550186      15.08707129      15.08786137      15.08830826      15.08925237      15.09087323      15.09258064      15.09450958      15.09696147      15.10110659
        15.10674912      15.11320597      15.12198323      15.13364395      15.14654704      15.15829983      15.17002336      15.18247860      15.19571452      15.21007690      15.22320393      15.23303349      15.24231041      15.25136376      15.26177596      15.27407076      15.28801796      15.30282836      15.31382108      15.31925245
        15.13224898      15.12956405      15.12515858      15.11951717      15.11292418      15.10610978      15.09926366      15.09225000      15.08531958      15.07852680      15.07223453      15.06694728      15.06270521      15.05935521      15.05701355      15.05519483      15.05358338      15.05189609      15.05052419      15.04975773
        15.04990406      15.05097571      15.05266212      15.05551428      15.05964953      15.06511052      15.07170340      15.07865132      15.08577354      15.09319021      15.10074994      15.10860813      15.11684247      15.12648929      15.13755263      15.15083416      15.16545039      15.18020304      15.19515980      15.20768619
        15.21656965      15.22118541      15.22726884      15.23381018      15.23823675      15.24061376      15.23760199      15.23351510      15.22805685      15.21982834      15.20938136      15.19765724      15.18621584      15.17711087      15.16846280      15.16013804      15.15173826      15.14372861      15.13748780      15.13325522
        15.13154542      15.13176786      15.13320417      15.13474249      15.13463321      15.13305950      15.13093389      15.12746227      15.12314400      15.11884024      15.11588687      15.11397671      15.11351942      15.11545079      15.12019697      15.12668789      15.13372493      15.14075488      15.14731458      15.15296373
        15.15823727      15.16506454      15.17583005      15.18983284      15.20346847      15.21635421      15.23067000      15.24649126      15.26158188      15.27414156      15.28539662      15.29697966      15.31002010      15.32533197      15.34346032      15.36264076      15.38383669      15.40340012      15.41754585      15.42635406
        15.14215149      15.13979013      15.13644684      15.13227785      15.12700297      15.12130772      15.11560076      15.10975719      15.10433189      15.09913277      15.09409860      15.08945830      15.08473717      15.07985214      15.07545260      15.07156584      15.06828250      15.06576304      15.06404929      15.06384077
        15.06475951      15.06679262      15.07007153      15.07512258      15.08146649      15.08785038      15.09470873      15.10273628      15.11147638      15.12142966      15.13173619      15.14223887      15.15425140      15.16914605      15.18707628      15.20645129      15.22814037      15.25203007      15.27732851      15.29924939
        15.32062028      15.33784781      15.35161506      15.35769276      15.35674818      15.34997843      15.33968144      15.32678246      15.31071883      15.29404998      15.27679062      15.25981594      15.24371128      15.22916492      15.21690531      15.20501965      15.19410758      15.18567230      15.18030359      15.17744486
        15.17667306      15.17694480      15.17682132      15.17588723      15.17344930      15.16897172      15.16326784      15.15702057      15.15056205      15.14510093      15.14172263      15.14121513      15.14450036      15.15275445      15.16511165      15.17822087      15.19131607      15.20246929      15.21097632      15.21779563
        15.22452392      15.23382389      15.24630159      15.25982265      15.27329894      15.28861925      15.30463444      15.32184222      15.33669950      15.34897755      15.36306310      15.38256881      15.40168826      15.42081457      15.44152055      15.46559551      15.49288878      15.51557673      15.53285520      15.54290042
        15.15352999      15.15190559      15.14922058      15.14596861      15.14205595      15.13771287      15.13384838      15.13015118      15.12681481      15.12293416      15.11867591      15.11412025      15.10841528      15.10194543      15.09560795      15.09000904      15.08592511      15.08394301      15.08394263      15.08545307
        15.08809290      15.09238652      15.09832379      15.10451148      15.11136788      15.11790958      15.12581859      15.13680604      15.14824198      15.16115052      15.17501611      15.19194179      15.21196459      15.23636156      15.26505249      15.29731680      15.33032575      15.36465519      15.39586110      15.42427609
        15.45041656      15.46918196      15.47630922      15.47379314      15.46586858      15.45123801      15.43252338      15.40933316      15.38319086      15.35777222      15.33356975      15.31241200      15.29339171      15.27562473      15.26029853      15.24711547      15.23693658      15.22989231      15.22530748      15.22313940
        15.22174356      15.21943628      15.21568751      15.21049968      15.20497933      15.19810547      15.19010643      15.18254210      15.17580697      15.17195301      15.17236652      15.17779464      15.19042268      15.20962272      15.22976021      15.24737118      15.26235543      15.27440358      15.28511520      15.29774807
        15.31277022      15.32843178      15.34136543      15.35391322      15.36923935      15.38784923      15.40826574      15.42679122      15.44334960      15.46186749      15.48377709      15.50720286      15.53085772      15.55423382      15.57920004      15.60460979      15.62614284      15.64155962      15.65304715      15.65800120
        15.16848641      15.16701846      15.16479622      15.16252725      15.16075688      15.15892527      15.15728623      15.15506836      15.15217105      15.14825015      15.14377812      15.13854378      15.13211860      15.12429041      15.11707403      15.11160187      15.10923879      15.11072596      15.11489350      15.12016742
        15.12618813      15.13296211      15.14019987      15.14868711      15.15818955      15.16817657      15.18008843      15.19314422      15.20762156      15.22619043      15.25089754      15.28152187      15.31682919      15.35565354      15.39552876      15.43525302      15.47127314      15.50235364      15.52882315      15.55297434
        15.56995047      15.57935117      15.57822431      15.56998525      15.55576069      15.53359534      15.50558419      15.47490480      15.44270594      15.41188283      15.38272516      15.35880610      15.33861002      15.32040411      15.30538165      15.29381564      15.28478343      15.27709118      15.27093238      15.26521648
        15.25963659      15.25272164      15.24531774      15.23749011      15.22968604      15.22218835      15.21526296      15.21004117      15.20757002      15.21007842      15.21922151      15.23605361      15.26028592      15.28728675      15.30996354      15.32779597      15.34428584      15.36220611      15.38447714      15.41253543
        15.43988956      15.46379304      15.48816681      15.51230985      15.53466885      15.55629615      15.57471560      15.58474888      15.59674916      15.61657559      15.63960642      15.66171964      15.68485674      15.70811244      15.72955151      15.74496550      15.75314111      15.75797066      15.76114138      15.76268166
        15.18745809      15.18607842      15.18463948      15.18385889      15.18430923      15.18477411      15.18430833      15.18215042      15.17947357      15.17599815      15.17135646      15.16554375      15.15892202      15.15115652      15.14494495      15.14294699      15.14707640      15.15624762      15.16724729      15.17695148
        15.18664491      15.19724972      15.20973721      15.22630194      15.24338772      15.25942358      15.27572693      15.29351698      15.31645027      15.34739767      15.38551616      15.42769394      15.47117492      15.51156262      15.54786510      15.57969530      15.60762559      15.63003497      15.65074344      15.66576084
        15.67186876      15.67337066      15.66861024      15.65595433      15.63471706      15.60454520      15.56946596      15.53405957      15.49857048      15.46546288      15.43428455      15.40827947      15.38781655      15.37084084      15.35636852      15.34323696      15.33139127      15.32030673      15.30970520      15.29886570
        15.28840936      15.27861976      15.26959038      15.26165125      15.25449394      15.24907250      15.24671143      15.24850907      15.25669744      15.27030393      15.29183066      15.32068137      15.35262414      15.38176431      15.40653617      15.43245749      15.46340309      15.49981167      15.54454292      15.59313490
        15.63765098      15.67462774      15.70925157      15.74132423      15.76141150      15.76993200      15.77215706      15.76954977      15.77037771      15.77960841      15.79342532      15.80963251      15.82280486      15.83318770      15.84039289      15.84438118      15.84561597      15.84595187      15.84495988      15.84437595
        15.21378033      15.21280052      15.21151274      15.21165828      15.21311453      15.21421583      15.21419257      15.21361891      15.21267993      15.21107671      15.20818937      15.20427675      15.20010884      15.19690750      15.19930302      15.20824847      15.22244657      15.24093427      15.25947052      15.27744960
        15.29498014      15.31911389      15.34584307      15.36892651      15.38784106      15.40581691      15.42747723      15.45364835      15.48221781      15.51608719      15.55379533      15.59126242      15.62493204      15.65546123      15.68436284      15.70921996      15.73029946      15.74684053      15.75846881      15.76438992
        15.76462336      15.76000548      15.74898592      15.72968004      15.70149150      15.66748708      15.63115081      15.59429577      15.55781642      15.52439459      15.49428781      15.46818444      15.44680680      15.42740420      15.40993020      15.39215279      15.37397734      15.35810271      15.34265197      15.32832382
        15.31539531      15.30433042      15.29560079      15.28953775      15.28676115      15.28816983      15.29438985      15.30841533      15.32942817      15.35675598      15.39573148      15.44017159      15.48308647      15.52613439      15.57022693      15.62001257      15.67734909      15.74277835      15.80363837      15.85978879
        15.90467912      15.93660288      15.95849496      15.97036459      15.97130084      15.96112501      15.94611500      15.93326965      15.92449064      15.92233118      15.92466699      15.92730490      15.92712630      15.92413697      15.91931223      15.91583957      15.91434714      15.91426072      15.91255010      15.91093662
        15.25127662      15.25030127      15.24967875      15.25023578      15.25124716      15.25287777      15.25643325      15.26060259      15.26379493      15.26622331      15.26816776      15.27173728      15.27921433      15.29358674      15.31390262      15.33904813      15.36986837      15.40408139      15.43485566      15.46969732
        15.50314870      15.53118654      15.54825609      15.55796407      15.56798130      15.58174760      15.60268965      15.62870284      15.65311666      15.67773227      15.70481511      15.73156215      15.75904948      15.78739932      15.81552017      15.83609193      15.84891078      15.85590089      15.85794696      15.85785034
        15.85193884      15.83814686      15.81779447      15.79135486      15.75990226      15.72511452      15.69052578      15.65726717      15.62451774      15.59304832      15.56343250      15.53632983      15.51204802      15.48847009      15.46444691      15.44082160      15.41731771      15.39622067      15.37776772      15.36147321
        15.34796492      15.33725977      15.33079561      15.32988117      15.33497983      15.34761060      15.36928230      15.40181264      15.44183187      15.49421605      15.56188542      15.63312528      15.70419956      15.77845505      15.84684832      15.91317991      15.98390358      16.05356194      16.10222227      16.13771988
        16.15897961      16.16636825      16.16402038      16.14927307      16.12853539      16.10736516      16.08427918      16.06388733      16.04820380      16.03638215      16.02612120      16.01555382      16.00653687      15.99834959      15.99107430      15.98481932      15.97983494      15.97542757      15.97226323      15.97062112
        15.29797568      15.29909705      15.30203983      15.30613196      15.31233164      15.31913185      15.32714418      15.33564955      15.34690560      15.36049049      15.37804903      15.40342635      15.43802402      15.48209949      15.53142049      15.58293241      15.63397336      15.68461933      15.72720924      15.74899822
        15.75821534      15.75748614      15.74790400      15.74042361      15.73744491      15.74036045      15.75508891      15.77748890      15.79900614      15.81836586      15.83963811      15.86576036      15.89484410      15.92376775      15.94727240      15.96033381      15.96455491      15.96310720      15.95609264      15.94444164
        15.92772260      15.90533757      15.88107200      15.85376992      15.82453838      15.79379548      15.76318625      15.73482848      15.70533703      15.67378151      15.63963016      15.60697345      15.57770123      15.54999894      15.52184477      15.49271489      15.46562197      15.44183128      15.42207234      15.40624478
        15.39424341      15.38709545      15.38625209      15.39412202      15.41270850      15.44390867      15.48756122      15.54282797      15.61404994      15.70011476      15.80035377      15.89503545      15.98169472      16.06915068      16.14297318      16.20763178      16.26699884      16.31160850      16.33273151      16.33912426
        16.33565082      16.32232315      16.30075866      16.27349407      16.24295864      16.21408151      16.18781819      16.16372386      16.14270986      16.12375615      16.10614255      16.09284195      16.08180363      16.07124842      16.06137937      16.05048047      16.03999636      16.03019947      16.02342586      16.01969167
        15.36829902      15.37579821      15.38461323      15.39338391      15.40572800      15.41833417      15.43339376      15.45400306      15.48241727      15.51665607      15.56461410      15.62113042      15.68975581      15.77120259      15.85058243      15.91998729      15.97253596      16.00417430      16.01496793      15.99771731
        15.96893416      15.94364872      15.92003441      15.90091545      15.88655555      15.88265429      15.89528896      15.91589945      15.93760561      15.95982295      15.98482239      16.01282439      16.03702150      16.05635173      16.06768209      16.06917898      16.06329689      16.05197451      16.03586443      16.01453973
        15.99185487      15.96865985      15.94636454      15.92396333      15.90060098      15.87524823      15.84872442      15.82097144      15.78811980      15.75111120      15.71135604      15.67317812      15.63870975      15.60591897      15.57600833      15.54660362      15.51959164      15.49814335      15.48197629      15.47090876
        15.46449714      15.46481432      15.47357335      15.49483180      15.53100044      15.58317186      15.65102887      15.73685712      15.83993573      15.95176697      16.06075021      16.15883452      16.24711410      16.32647474      16.38749697      16.43378849      16.46599637      16.48073574      16.47935721      16.46720128
        16.44765233      16.42377485      16.39502641      16.36333258      16.33178532      16.29955852      16.26921413      16.24230705      16.21896304      16.19833730      16.18040530      16.16557929      16.15102576      16.13504218      16.11842937      16.10193766      16.08644813      16.07362050      16.06397995      16.05843510
        15.48864135      15.49394688      15.50210349      15.51440420      15.53331275      15.55479530      15.58395973      15.62250900      15.67429921      15.73936079      15.81869540      15.90438819      15.99964281      16.09429918      16.16776377      16.21421567      16.23329873      16.22613064      16.20263313      16.17348204
        16.14099481      16.11143107      16.08268361      16.05766994      16.03939918      16.03625608      16.04797573      16.06673866      16.09010947      16.11620519      16.13749269      16.15323210      16.16184906      16.16340835      16.15804667      16.14732186      16.13270604      16.11483922      16.09440699      16.07303086
        16.05148797      16.02993119      16.00974835      15.99017681      15.96947240      15.94580347      15.91882302      15.88827559      15.85311032      15.81294427      15.76971185      15.72843137      15.69182470      15.65927331      15.63111733      15.60688990      15.58717233      15.57414539      15.56806297      15.56681794
        15.57183228      15.58554279      15.61131392      15.65189531      15.70462289      15.77877945      15.87551788      15.99390322      16.11639275      16.22824290      16.32620315      16.41632337      16.48610545      16.53520352      16.56792678      16.58631643      16.59173141      16.58490493      16.57040476      16.55056282
        16.52590090      16.49932585      16.46973319      16.43747140      16.40517938      16.37217016      16.33989558      16.31110629      16.28620725      16.26291936      16.24097213      16.21988925      16.19992743      16.17935178      16.15833610      16.13888084      16.12205186      16.10909524      16.10014778      16.09528005
        15.65274767      15.65331124      15.66110524      15.68538318      15.71853924      15.75557563      15.80400890      15.86065953      15.92986798      16.01375534      16.10682289      16.20161436      16.28809268      16.35056198      16.38235695      16.39017020      16.38132556      16.36218752      16.33909922      16.31758692
        16.29452528      16.27151891      16.24936148      16.23112824      16.21854959      16.21555153      16.21991408      16.23003986      16.24369991      16.25640471      16.26029128      16.25650907      16.24814744      16.23564299      16.21884873      16.20047583      16.18151160      16.16162732      16.14027967      16.11943911
        16.10001692      16.07954605      16.05870967      16.03847429      16.01708382      15.99306521      15.96616571      15.93585528      15.90185332      15.86348598      15.82145333      15.78144609      15.74714420      15.71953534      15.69898088      15.68416835      15.67453071      15.67094937      15.67724339      15.69212584
        15.71719985      15.75368087      15.80285322      15.86481214      15.94094278      16.04216785      16.16291799      16.28848109      16.40057229      16.49239368      16.56626869      16.61857838      16.64632744      16.66223103      16.66887982      16.66827791      16.66034018      16.64561085      16.62601755      16.60514159
        16.58107447      16.55482900      16.52518946      16.49306839      16.46025574      16.42585265      16.39269685      16.36161789      16.33331186      16.30657437      16.27992659      16.25425983      16.23111000      16.20977694      16.18954676      16.17092124      16.15535875      16.14463928      16.13814477      16.13486605
        15.87383437      15.88257866      15.90235991      15.93617044      15.98029656      16.02936634      16.08404861      16.14390094      16.21549170      16.29300719      16.37016575      16.43580668      16.48224895      16.50622349      16.51151255      16.50510691      16.49497012      16.48203105      16.46649157      16.45208801
        16.43648878      16.42299816      16.40931964      16.39512340      16.38205405      16.37135867      16.36360557      16.35795894      16.35358826      16.34717937      16.33678321      16.32211087      16.30468664      16.28494756      16.26430964      16.24375627      16.22320278      16.20241121      16.18077306      16.15902573
        16.13785961      16.11733837      16.09704647      16.07657740      16.05531763      16.03172678      16.00612118      15.97816977      15.94808369      15.91533214      15.87825968      15.84259630      15.81384613      15.79393335      15.78247967      15.77921874      15.78359374      15.79613526      15.81781618      15.84858288
        15.89089734      15.94777823      16.01729499      16.10026271      16.20000656      16.31281959      16.42781710      16.52981989      16.60891758      16.66452054      16.69894051      16.71451153      16.71890837      16.71909869      16.71476742      16.70725994      16.69568656      16.68077365      16.66209640      16.64126240
        16.61759400      16.59140581      16.56149122      16.52876750      16.49568244      16.46017828      16.42458273      16.39156096      16.36083309      16.33193087      16.30453031      16.27903969      16.25601138      16.23544113      16.21741024      16.20276462      16.19110400      16.18276380      16.17725436      16.17381522
        16.15747450      16.17139918      16.19899474      16.23251561      16.26986750      16.30714084      16.34895849      16.39735799      16.45586343      16.51295656      16.55656701      16.58542395      16.60289906      16.61012640      16.60936195      16.60190433      16.59177601      16.57997709      16.56597715      16.55340730
        16.54124866      16.52962419      16.51546873      16.49944551      16.48136638      16.46212321      16.44539378      16.42868658      16.41337669      16.39804231      16.38129771      16.36346790      16.34449534      16.32316987      16.30101033      16.27982879      16.25963337      16.23979730      16.21902501      16.19799741
        16.17745812      16.15696911      16.13736630      16.11765001      16.09731448      16.07590923      16.05346397      16.02923213      16.00301085      15.97602886      15.94673754      15.91837594      15.89682773      15.88685530      15.88960171      15.90068783      15.91880053      15.94441387      15.97743841      16.01758454
        16.06970117      16.13742977      16.21999149      16.31487318      16.41742886      16.51753636      16.60351207      16.66803317      16.70838622      16.73065818      16.74229448      16.74636116      16.74593540      16.74260070      16.73663610      16.72884014      16.71761150      16.70282908      16.68467791      16.66415925
        16.64049305      16.61403091      16.58451417      16.55266640      16.51941571      16.48373922      16.44766737      16.41348488      16.38266821      16.35425424      16.32758231      16.30370925      16.28313740      16.26552026      16.25019139      16.23750432      16.22703484      16.21816719      16.21165895      16.20758545
        16.45732558      16.46712376      16.47989762      16.49588432      16.51470773      16.53673161      16.56531515      16.59905804      16.63187370      16.65947600      16.67560765      16.68339160      16.68544151      16.68166404      16.67287781      16.66119849      16.64715643      16.63204982      16.61665619      16.60298177
        16.59030232      16.57711191      16.56220366      16.54605683      16.52782585      16.50751484      16.48686248      16.46567347      16.44600770      16.42780140      16.40938276      16.39040398      16.37154600      16.35181423      16.33108306      16.31114478      16.29246827      16.27418162      16.25514755      16.23576571