# File generated by Flopy version 3.6.0 on 10/31/2024 at 14:01:16.
BEGIN options
  PRINT_OPTION  summary
  COMPLEXITY  complex
END options

BEGIN linear
  LINEAR_ACCELERATION  bicgstab
END linear

