# File generated by Flopy version 3.6.0 on 09/12/2024 at 15:42:26.
BEGIN options
  PRINT_OPTION  summary
  COMPLEXITY  complex
END options

BEGIN linear
  LINEAR_ACCELERATION  bicgstab
END linear

