# File generated by Flopy version 3.7.0 on 07/29/2024 at 17:08:59.
BEGIN options
END options

BEGIN griddata
  strt
    INTERNAL  FACTOR  1.0
        15.00000000      15.00000000      15.00000000      15.00000000      15.00000000      15.00000000      15.00000000      15.00000000      15.00000000      15.00000000      15.00000000      15.00000000      15.00000000      15.00000000      15.00000000      15.00000000      15.00000000      15.00000000      15.00000000      15.00000000
        15.00000000      15.00000000      15.00000000      15.00000000      15.00000000      15.00000000      15.00000000      15.00000000      15.00000000      15.00000000      15.00000000      15.00000000      15.00000000      15.00000000      15.00000000      15.00000000      15.00000000      15.00000000      15.00000000      15.00000000
        15.00000000      15.00000000      15.00000000      15.00000000      15.00000000      15.00000000      15.00000000      15.00000000      15.00000000      15.00000000      15.00000000      15.00000000      15.00000000      15.00000000      15.00000000      15.00000000      15.00000000      15.00000000      15.00000000      15.00000000
        15.00000000      15.00000000      15.00000000      15.00000000      15.00000000      15.00000000      15.00000000      15.00000000      15.00000000      15.00000000      15.00000000      15.00000000      15.00000000      15.00000000      15.00000000      15.00000000      15.00000000      15.00000000      15.00000000      15.00000000
        15.00000000      15.00000000      15.00000000      15.00000000      15.00000000      15.00000000      15.00000000      15.00000000      15.00000000      15.00000000      15.00000000      15.00000000      15.00000000      15.00000000      15.00000000      15.00000000      15.00000000      15.00000000      15.00000000      15.00000000
        15.16068863      15.16572847      15.17245213      15.17750708      15.17663089      15.17116847      15.16255101      15.15452224      15.14942157      15.14703127      15.14333992      15.13556075      15.12569968      15.11503842      15.10524457      15.09566769      15.08633904      15.07728796      15.06809525      15.05971169
        15.05180312      15.04513635      15.03921548      15.03375628      15.02906392      15.02556874      15.02366499      15.02276835      15.02229503      15.02160623      15.02082490      15.02006227      15.01980909      15.02013770      15.02114575      15.02256090      15.02397413      15.02609688      15.02942446      15.03435677
        15.04053633      15.04712831      15.05283346      15.05763937      15.06206017      15.06590604      15.07022878      15.07421251      15.07728955      15.07908530      15.07978915      15.08140686      15.08633254      15.09258298      15.09842395      15.10311203      15.10576252      15.10643596      15.10577038      15.10230651
        15.09733228      15.09163829      15.08503829      15.07758134      15.07153560      15.06586128      15.06039208      15.05609267      15.05480989      15.05758869      15.06408529      15.07289523      15.08400382      15.09634876      15.10925686      15.12119052      15.13153278      15.14089353      15.14732277      15.15192598
        15.15661888      15.16390889      15.17480683      15.18908633      15.20563538      15.22635759      15.24753378      15.26768805      15.28212434      15.28400044      15.27482501      15.25948420      15.24239681      15.22333623      15.20352649      15.18689738      15.16975560      15.15378182      15.14433562      15.14124662
        15.26230459      15.26659160      15.27152727      15.27374211      15.27047851      15.26263942      15.25140588      15.23897958      15.22805804      15.21878777      15.20848160      15.19648622      15.18397921      15.17192869      15.16032365      15.14834494      15.13637425      15.12451000      15.11238468      15.10050645
        15.08946396      15.07892487      15.06961878      15.06155770      15.05484481      15.04998759      15.04674849      15.04455871      15.04287863      15.04120851      15.03999533      15.03945328      15.03958646      15.04054032      15.04220421      15.04446881      15.04732048      15.05199145      15.05895901      15.06806606
        15.07842948      15.08903209      15.09838914      15.10662126      15.11400522      15.12058290      15.12724246      15.13342645      15.13911585      15.14429555      15.14934684      15.15565094      15.16330491      15.17058603      15.17614557      15.17870876      15.17908072      15.17716074      15.17296180      15.16548108
        15.15676327      15.14788831      15.13894913      15.12979426      15.12136012      15.11347560      15.10687261      15.10311304      15.10410169      15.11077821      15.12176248      15.13678845      15.15548793      15.17693012      15.19940594      15.21996191      15.23794196      15.25132621      15.26047967      15.26867379
        15.27913577      15.29519299      15.31873350      15.34944004      15.38424331      15.42126110      15.45570068      15.48456093      15.49964953      15.49532593      15.47930334      15.45363650      15.42489266      15.39649001      15.36786113      15.34338375      15.32338751      15.30857291      15.29986906      15.29767545
        15.32196733      15.32273142      15.32258124      15.32020887      15.31504610      15.30589631      15.29336837      15.27902341      15.26522856      15.25265115      15.24023427      15.22776683      15.21556786      15.20385260      15.19232080      15.18032246      15.16802336      15.15547777      15.14284641      15.13013935
        15.11803537      15.10626507      15.09545832      15.08617690      15.07839132      15.07252625      15.06803408      15.06428504      15.06107161      15.05881164      15.05771223      15.05791717      15.05917925      15.06085410      15.06303305      15.06630535      15.07141240      15.07898399      15.08900594      15.10049552
        15.11285587      15.12531517      15.13673969      15.14700999      15.15662376      15.16636107      15.17624856      15.18568343      15.19390499      15.20174391      15.20941558      15.21675279      15.22316779      15.22839299      15.23143481      15.23199483      15.23043631      15.22629645      15.21934347      15.21094886
        15.20197065      15.19244047      15.18239437      15.17197913      15.16193336      15.15363416      15.14841540      15.14741311      15.15181415      15.16176409      15.17731825      15.19831317      15.22188288      15.24676499      15.27197639      15.29552570      15.31603710      15.33158807      15.34448281      15.35915387
        15.37905567      15.40719819      15.44327756      15.48538816      15.52935696      15.57107631      15.60628786      15.63090348      15.64194174      15.63567250      15.61774274      15.59114955      15.55992781      15.52877074      15.49940577      15.47601366      15.45878453      15.44771569      15.43993953      15.43683076
        15.34928608      15.34813796      15.34525332      15.34034603      15.33335138      15.32343255      15.31059575      15.29625438      15.28235733      15.26960786      15.25776715      15.24628611      15.23497677      15.22365226      15.21257949      15.20111229      15.18942640      15.17722755      15.16485602      15.15266887
        15.14083508      15.12941628      15.11846637      15.10859129      15.10021705      15.09317381      15.08739010      15.08251592      15.07866017      15.07646453      15.07600080      15.07705653      15.07902577      15.08154841      15.08489146      15.08980287      15.09746865      15.10759310      15.11895948      15.13090264
        15.14348982      15.15600632      15.16797414      15.17998490      15.19266578      15.20542940      15.21757979      15.22829114      15.23721571      15.24490269      15.25197162      15.25821510      15.26339388      15.26742439      15.26900868      15.26826112      15.26542893      15.26066865      15.25447830      15.24745066
        15.23939488      15.23043861      15.22094121      15.21169017      15.20319260      15.19665960      15.19378946      15.19532768      15.20242151      15.21506061      15.23339141      15.25587839      15.27908669      15.30257470      15.32612397      15.34972863      15.37148681      15.39090482      15.40983685      15.43193815
        15.45931588      15.49215376      15.53074849      15.57473767      15.61916142      15.65897494      15.69052383      15.71153851      15.72022874      15.71660981      15.70315545      15.68286363      15.65687140      15.62845979      15.60288139      15.58203385      15.56691219      15.55528309      15.54629228      15.54153412
        15.35792207      15.35582822      15.35151109      15.34513098      15.33713682      15.32753001      15.31592081      15.30339895      15.29092718      15.27920493      15.26824441      15.25760903      15.24719157      15.23662843      15.22612009      15.21541058      15.20444742      15.19328286      15.18173774      15.17047224
        15.15965848      15.14905519      15.13876729      15.12899705      15.12017295      15.11230938      15.10543387      15.10002252      15.09648217      15.09487947      15.09493046      15.09643481      15.09877780      15.10218580      15.10719512      15.11444177      15.12435027      15.13553869      15.14666677      15.15830688
        15.17066221      15.18347406      15.19661762      15.21040879      15.22466426      15.23794794      15.24950171      15.25902802      15.26682478      15.27353953      15.27956121      15.28496904      15.28913202      15.29175978      15.29244634      15.29125818      15.28888667      15.28567923      15.28162267      15.27635175
        15.26987646      15.26304661      15.25635670      15.24996522      15.24465771      15.24176272      15.24195091      15.24593233      15.25401845      15.26695090      15.28390345      15.30379405      15.32470861      15.34597231      15.36842211      15.39301190      15.41805552      15.44184612      15.46494904      15.48940778
        15.51674931      15.54805555      15.58526918      15.62709738      15.66788975      15.70326505      15.73144737      15.75160359      15.76187890      15.76280962      15.75498466      15.74077434      15.72192060      15.69944299      15.67675874      15.65700715      15.64202296      15.63023384      15.62148779      15.61658330
        15.35697013      15.35384799      15.34860602      15.34193959      15.33444569      15.32595413      15.31632135      15.30617944      15.29559075      15.28508817      15.27515588      15.26547859      15.25583778      15.24606636      15.23625345      15.22636211      15.21631250      15.20616226      15.19569574      15.18530042
        15.17545313      15.16573252      15.15626750      15.14718853      15.13847201      15.13038436      15.12319049      15.11780498      15.11472614      15.11339458      15.11356165      15.11481632      15.11732553      15.12184802      15.12913220      15.13893726      15.15018621      15.16135552      15.17229459      15.18417943
        15.19718105      15.21076683      15.22441829      15.23830953      15.25148334      15.26286005      15.27237626      15.28020233      15.28656623      15.29219063      15.29733590      15.30191005      15.30510884      15.30681939      15.30742570      15.30711053      15.30591759      15.30426586      15.30176314      15.29824375
        15.29405579      15.29008490      15.28681376      15.28378922      15.28193861      15.28249110      15.28546700      15.29127971      15.29979624      15.31172722      15.32674527      15.34461824      15.36401339      15.38477602      15.40832518      15.43535439      15.46323141      15.48900289      15.51262469      15.53506568
        15.56000283      15.58950405      15.62391958      15.66075893      15.69581533      15.72778986      15.75481599      15.77591731      15.78872878      15.79171372      15.78622661      15.77497650      15.76000332      15.74191743      15.72256991      15.70471783      15.69015800      15.67931340      15.67120335      15.66677355
        15.35136680      15.34769517      15.34251116      15.33649964      15.33004850      15.32309191      15.31558325      15.30748703      15.29870011      15.28956703      15.28054999      15.27166891      15.26271392      15.25366736      15.24449175      15.23515083      15.22580541      15.21633703      15.20669239      15.19702380
        15.18799346      15.17947563      15.17121537      15.16317036      15.15531517      15.14780361      15.14121974      15.13628412      15.13336197      15.13213044      15.13241302      15.13379990      15.13701046      15.14304060      15.15214030      15.16327693      15.17505609      15.18598829      15.19703305      15.20935094
        15.22256762      15.23576184      15.24845751      15.26086698      15.27166669      15.28050067      15.28787280      15.29401169      15.29920407      15.30408147      15.30873353      15.31272761      15.31570025      15.31761569      15.31873275      15.31933246      15.31925237      15.31852353      15.31729023      15.31591137
        15.31449455      15.31328934      15.31235826      15.31191734      15.31243109      15.31481911      15.31939213      15.32615504      15.33521806      15.34677918      15.36137187      15.37898354      15.39899487      15.42135994      15.44640082      15.47449926      15.50302921      15.52836413      15.55026047      15.57089855
        15.59400672      15.62084548      15.65104037      15.68230076      15.71313964      15.74317784      15.76950465      15.79057500      15.80409984      15.80790936      15.80399441      15.79457082      15.78197106      15.76655526      15.74961518      15.73314915      15.71911854      15.70892343      15.70163430      15.69763850
        15.34491541      15.34149540      15.33698125      15.33194182      15.32657843      15.32109702      15.31522617      15.30858310      15.30117477      15.29328407      15.28515741      15.27697747      15.26858403      15.25995202      15.25131238      15.24242849      15.23346388      15.22445910      15.21536839      15.20634934
        15.19803336      15.19056505      15.18353454      15.17677722      15.17021140      15.16405455      15.15894725      15.15496371      15.15238049      15.15152338      15.15225441      15.15485146      15.16002738      15.16790829      15.17808577      15.18940429      15.20016707      15.21008651      15.22063190      15.23216896
        15.24405431      15.25553504      15.26650673      15.27647359      15.28472818      15.29149546      15.29732476      15.30246146      15.30718685      15.31182161      15.31632380      15.32041152      15.32381881      15.32629719      15.32814957      15.32963603      15.33064654      15.33106360      15.33132437      15.33160254
        15.33191489      15.33241696      15.33280074      15.33369232      15.33540781      15.33881780      15.34407612      15.35111884      15.36051714      15.37287279      15.38877314      15.40773911      15.42909265      15.45215592      15.47749597      15.50521907      15.53287184      15.55731042      15.57890084      15.59930071
        15.62037268      15.64394357      15.66974510      15.69637513      15.72400614      15.75235895      15.77766741      15.79756957      15.81102342      15.81601273      15.81363973      15.80562198      15.79439095      15.78059218      15.76529985      15.75007992      15.73657402      15.72646360      15.71974223      15.71622362
        15.33948531      15.33674070      15.33307798      15.32905111      15.32483432      15.32051348      15.31567024      15.31001551      15.30357296      15.29656764      15.28924723      15.28163899      15.27381704      15.26576596      15.25752079      15.24902013      15.24031732      15.23156260      15.22268115      15.21396814
        15.20669607      15.20033251      15.19458222      15.18928707      15.18436877      15.18000227      15.17657955      15.17390177      15.17220205      15.17214243      15.17425316      15.17897060      15.18623229      15.19550417      15.20590370      15.21574524      15.22423561      15.23247660      15.24133414      15.25068646
        15.26029292      15.26975671      15.27869372      15.28647893      15.29304126      15.29870289      15.30384957      15.30869299      15.31334423      15.31811615      15.32287917      15.32728325      15.33111758      15.33429521      15.33701495      15.33940071      15.34127434      15.34264265      15.34377843      15.34494749
        15.34622143      15.34756201      15.34929334      15.35187816      15.35536935      15.35979031      15.36558304      15.37318217      15.38344628      15.39698615      15.41345981      15.43205033      15.45273899      15.47546017      15.50050097      15.52714348      15.55361996      15.57826964      15.60066114      15.62117116
        15.64081317      15.66126510      15.68299167      15.70575682      15.72994732      15.75540429      15.77908105      15.79790019      15.81118432      15.81743042      15.81635803      15.80937036      15.79905905      15.78649190      15.77256271      15.75859581      15.74612290      15.73655665      15.73037845      15.72737876
        15.33571101      15.33363371      15.33077102      15.32765644      15.32439548      15.32084350      15.31666453      15.31181769      15.30625372      15.29994598      15.29310902      15.28602137      15.27877738      15.27127717      15.26346897      15.25538445      15.24703580      15.23829220      15.22895227      15.21941050
        15.21422388      15.20965141      15.20548033      15.20180076      15.19868254      15.19622780      15.19433128      15.19320322      15.19299804      15.19451862      15.19847232      15.20466885      15.21254151      15.22149279      15.23018301      15.23736871      15.24358766      15.25000544      15.25690572      15.26419731
        15.27196857      15.27983960      15.28722034      15.29384400      15.29970537      15.30494147      15.30988268      15.31473438      15.31955938      15.32450395      15.32946604      15.33420237      15.33855177      15.34246135      15.34590574      15.34887950      15.35132260      15.35329527      15.35496041      15.35683456
        15.35908149      15.36184164      15.36576010      15.37075239      15.37618097      15.38204045      15.38881023      15.39736528      15.40812776      15.42116998      15.43603491      15.45277269      15.47192469      15.49357674      15.51764024      15.54313202      15.56889124      15.59374261      15.61676203      15.63774907
        15.65585036      15.67267121      15.69020995      15.70939613      15.73003442      15.75194174      15.77272301      15.79015009      15.80288721      15.81011174      15.81038459      15.80452867      15.79557111      15.78465542      15.77238233      15.75992504      15.74886411      15.74023708      15.73462238      15.73204587
        15.33362209      15.33203513      15.32982377      15.32740529      15.32472081      15.32167106      15.31807031      15.31385575      15.30898251      15.30333009      15.29700614      15.29033420      15.28355027      15.27662349      15.26932672      15.26163588      15.25364616      15.24497774      15.23464441      15.21961386
        15.22119534      15.21932713      15.21687097      15.21472765      15.21311117      15.21225454      15.21187521      15.21238899      15.21394520      15.21698111      15.22174790      15.22784170      15.23486866      15.24195388      15.24792683      15.25283176      15.25755668      15.26275578      15.26844421      15.27459282
        15.28125262      15.28813726      15.29471365      15.30072592      15.30623543      15.31125115      15.31606021      15.32079141      15.32556831      15.33058714      15.33576555      15.34088489      15.34579800      15.35042588      15.35462420      15.35835881      15.36153781      15.36436183      15.36699434      15.36999454
        15.37375010      15.37851820      15.38443937      15.39113497      15.39804807      15.40499749      15.41234666      15.42105582      15.43157922      15.44323725      15.45599076      15.47079048      15.48818611      15.50865368      15.53166920      15.55590083      15.58031751      15.60417347      15.62736262      15.64810274
        15.66446491      15.67777558      15.69145836      15.70695367      15.72377436      15.74142046      15.75839647      15.77361450      15.78482879      15.79155687      15.79313232      15.78929877      15.78242386      15.77345553      15.76381679      15.75414145      15.74518119      15.73776629      15.73281360      15.73060203
        15.33278284      15.33159601      15.32986454      15.32785265      15.32553242      15.32280165      15.31958802      15.31587723      15.31157373      15.30656366      15.30090530      15.29485260      15.28857970      15.28213290      15.27547619      15.26846837      15.26116758      15.25346041      15.24514721      15.23669547
        15.23370539      15.23146208      15.22959860      15.22848770      15.22817246      15.22844475      15.22926313      15.23080513      15.23331288      15.23689126      15.24141034      15.24673324      15.25238525      15.25737310      15.26142295      15.26516863      15.26924862      15.27369764      15.27856690      15.28392587
        15.28990390      15.29615420      15.30215272      15.30767961      15.31270121      15.31721759      15.32164356      15.32615556      15.33089850      15.33608695      15.34154381      15.34710976      15.35271060      15.35820309      15.36346016      15.36811547      15.37242293      15.37677779      15.38111080      15.38572778
        15.39123210      15.39762416      15.40455140      15.41159669      15.41900355      15.42626100      15.43373916      15.44213911      15.45168809      15.46188221      15.47297654      15.48621962      15.50227496      15.52137361      15.54254382      15.56427821      15.58624116      15.60885976      15.63151426      15.65126985
        15.66590391      15.67647429      15.68675970      15.69840773      15.71106373      15.72402483      15.73659730      15.74851220      15.75759285      15.76321397      15.76574207      15.76399247      15.75956758      15.75370433      15.74759406      15.74116962      15.73471871      15.72903690      15.72518805      15.72346922
        15.33284386      15.33189488      15.33043745      15.32865043      15.32657921      15.32417537      15.32128471      15.31791463      15.31407795      15.30968604      15.30471416      15.29936148      15.29381159      15.28805952      15.28223904      15.27636816      15.27046440      15.26439113      15.25822683      15.25250119
        15.24875344      15.24609621      15.24434656      15.24358490      15.24378205      15.24449834      15.24571727      15.24759003      15.25052910      15.25421836      15.25844031      15.26280363      15.26686033      15.27023285      15.27320278      15.27633403      15.27997704      15.28397405      15.28832570      15.29326290
        15.29881974      15.30441317      15.30955056      15.31415750      15.31836765      15.32238632      15.32657509      15.33101329      15.33591624      15.34144019      15.34725149      15.35331692      15.35970264      15.36628795      15.37269028      15.37867931      15.38486806      15.39129392      15.39749807      15.40355579
        15.41023297      15.41732494      15.42426947      15.43096353      15.43803085      15.44512021      15.45221947      15.45963359      15.46776641      15.47685584      15.48674623      15.49858400      15.51308174      15.53004265      15.54860572      15.56781131      15.58744247      15.60792644      15.62881059      15.64702625
        15.66042879      15.66937416      15.67692312      15.68507367      15.69427572      15.70373800      15.71278811      15.72143160      15.72868568      15.73369869      15.73660830      15.73627867      15.73366322      15.73049525      15.72706046      15.72335659      15.71957353      15.71630772      15.71401748      15.71301736
        15.33347818      15.33267123      15.33139939      15.32981081      15.32794819      15.32580818      15.32323303      15.32018280      15.31677489      15.31293659      15.30861390      15.30399708      15.29934119      15.29459847      15.28992939      15.28540978      15.28111174      15.27690945      15.27267876      15.26854015
        15.26509881      15.26239786      15.26044730      15.25922732      15.25886777      15.25937749      15.26070807      15.26306609      15.26629655      15.26987165      15.27349412      15.27670060      15.27933907      15.28169698      15.28409479      15.28685586      15.29009561      15.29376169      15.29790396      15.30248104
        15.30728567      15.31177568      15.31581802      15.31960301      15.32329547      15.32705503      15.33114548      15.33580028      15.34113015      15.34705583      15.35325714      15.35995649      15.36739491      15.37535822      15.38360558      15.39187153      15.40001595      15.40784017      15.41533229      15.42240753
        15.42926258      15.43599107      15.44261105      15.44882472      15.45495530      15.46127650      15.46743755      15.47361657      15.48066239      15.48874154      15.49750921      15.50777711      15.52023448      15.53487626      15.55106508      15.56803742      15.58552229      15.60364833      15.62209945      15.63828479
        15.65030947      15.65828235      15.66404139      15.67005586      15.67694334      15.68426711      15.69137298      15.69801015      15.70376567      15.70788525      15.71054277      15.71127175      15.71027027      15.70898056      15.70753714      15.70611606      15.70468037      15.70343775      15.70206049      15.70134628
        15.33455210      15.33388467      15.33277829      15.33137282      15.32969831      15.32779466      15.32561657      15.32301191      15.32001105      15.31662954      15.31295333      15.30906488      15.30519833      15.30152305      15.29798856      15.29463579      15.29150350      15.28855663      15.28563488      15.28274051
        15.28016142      15.27785496      15.27568732      15.27393898      15.27294906      15.27319823      15.27479884      15.27749864      15.28059506      15.28366720      15.28648362      15.28880420      15.29068029      15.29250581      15.29453176      15.29680185      15.29946800      15.30269778      15.30623731      15.31000353
        15.31379080      15.31739774      15.32084519      15.32424482      15.32772695      15.33150836      15.33588212      15.34102820      15.34686489      15.35316561      15.36000845      15.36781731      15.37674093      15.38640661      15.39647500      15.40648511      15.41582621      15.42492462      15.43360787      15.44106973
        15.44740487      15.45336426      15.45932391      15.46469811      15.46990523      15.47527497      15.48041383      15.48552925      15.49137398      15.49830549      15.50581469      15.51418215      15.52424079      15.53646924      15.55060481      15.56583072      15.58151849      15.59744009      15.61329582      15.62760377
        15.63829813      15.64518459      15.64978225      15.65454800      15.65991625      15.66593157      15.67176410      15.67722126      15.68202498      15.68554317      15.68820407      15.68998950      15.69076967      15.69124525      15.69153137      15.69137322      15.69099128      15.69025957      15.68920099      15.68835195
        15.33585563      15.33533811      15.33442993      15.33325143      15.33184404      15.33024041      15.32839053      15.32627170      15.32384860      15.32101508      15.31782691      15.31450175      15.31124181      15.30823138      15.30544930      15.30291910      15.30059798      15.29847710      15.29647605      15.29450706
        15.29262521      15.29073834      15.28888286      15.28732415      15.28646498      15.28686896      15.28870323      15.29123150      15.29367939      15.29580857      15.29769733      15.29936025      15.30090825      15.30244287      15.30403285      15.30577104      15.30794379      15.31038390      15.31293177      15.31582001
        15.31892282      15.32204953      15.32524300      15.32855479      15.33210341      15.33613182      15.34098921      15.34675660      15.35314272      15.36007096      15.36805553      15.37731725      15.38770813      15.39873861      15.41018747      15.42170392      15.43276225      15.44307964      15.45181747      15.45862336
        15.46404850      15.46885175      15.47374239      15.47843063      15.48295873      15.48737144      15.49172155      15.49587431      15.50044133      15.50590081      15.51170247      15.51799313      15.52573119      15.53562653      15.54765473      15.56125881      15.57524933      15.58913118      15.60260119      15.61490072
        15.62430649      15.63066024      15.63490711      15.63863539      15.64279254      15.64748978      15.65223891      15.65692309      15.66159869      15.66545999      15.66880778      15.67182848      15.67412114      15.67558863      15.67660516      15.67692755      15.67681375      15.67623531      15.67548924      15.67474228
        15.33718062      15.33679938      15.33611810      15.33519068      15.33406366      15.33278685      15.33132429      15.32963338      15.32770177      15.32543150      15.32279641      15.31995690      15.31717380      15.31456615      15.31229327      15.31035056      15.30873436      15.30724794      15.30577090      15.30433964
        15.30284250      15.30125421      15.29988777      15.29893015      15.29869409      15.29948875      15.30131789      15.30330210      15.30482628      15.30606530      15.30719191      15.30836278      15.30961555      15.31083856      15.31206687      15.31340190      15.31496205      15.31662764      15.31860899      15.32098536