# File generated by Flopy version 3.7.0 on 06/13/2024 at 12:32:31.
BEGIN options
  PRINT_OPTION  summary
  COMPLEXITY  complex
END options

BEGIN linear
  LINEAR_ACCELERATION  bicgstab
END linear

