# File generated by Flopy version 3.6.0 on 09/19/2024 at 10:05:08.
BEGIN griddata
  strt
    INTERNAL  FACTOR  1.0
        15.00000000      15.00000000      15.00000000      15.00000000      15.00000000      15.00000000      15.00000000      15.00000000      15.00000000      15.00000000      15.00000000      15.00000000      15.00000000      15.00000000      15.00000000      15.00000000      15.00000000      15.00000000      15.00000000      15.00000000
        15.00000000      15.00000000      15.00000000      15.00000000      15.00000000      15.00000000      15.00000000      15.00000000      15.00000000      15.00000000      15.00000000      15.00000000      15.00000000      15.00000000      15.00000000      15.00000000      15.00000000      15.00000000      15.00000000      15.00000000
        15.00000000      15.00000000      15.00000000      15.00000000      15.00000000      15.00000000      15.00000000      15.00000000      15.00000000      15.00000000      15.00000000      15.00000000      15.00000000      15.00000000      15.00000000      15.00000000      15.00000000      15.00000000      15.00000000      15.00000000
        15.00000000      15.00000000      15.00000000      15.00000000      15.00000000      15.00000000      15.00000000      15.00000000      15.00000000      15.00000000      15.00000000      15.00000000      15.00000000      15.00000000      15.00000000      15.00000000      15.00000000      15.00000000      15.00000000      15.00000000
        15.00000000      15.00000000      15.00000000      15.00000000      15.00000000      15.00000000      15.00000000      15.00000000      15.00000000      15.00000000      15.00000000      15.00000000      15.00000000      15.00000000      15.00000000      15.00000000      15.00000000      15.00000000      15.00000000      15.00000000
        15.03274370      15.03204097      15.03168931      15.03278528      15.03565247      15.03895853      15.04268707      15.04713508      15.05085257      15.05380836      15.05440322      15.05496877      15.05590887      15.05516090      15.05477733      15.05575255      15.05550979      15.05503300      15.05475533      15.05434844
        15.05444706      15.05599559      15.05581841      15.05602209      15.05664954      15.05711039      15.06064209      15.06757954      15.07436990      15.08276556      15.09020897      15.09660436      15.10242411      15.10985344      15.11809297      15.12837385      15.14000869      15.14787000      15.15251471      15.14842449
        15.13627762      15.12291038      15.11278273      15.10916876      15.10941836      15.10659644      15.10409737      15.10402743      15.10415952      15.10766959      15.11101167      15.11325243      15.11920516      15.12664598      15.13423015      15.13736559      15.13845940      15.14032966      15.13883755      15.13718761
        15.13776098      15.13422374      15.13026609      15.12989716      15.13557649      15.14417143      15.15420093      15.16544869      15.17982151      15.18928654      15.19685692      15.21010216      15.22744595      15.23540623      15.23990840      15.24001376      15.23923613      15.23357564      15.22597435      15.22193105
        15.20896120      15.19208087      15.18611481      15.18949098      15.19127599      15.18902570      15.18129227      15.17401769      15.16716698      15.16399178      15.16497569      15.16757753      15.17202574      15.17678601      15.18158668      15.18958515      15.18958453      15.18544130      15.18184044      15.17702242
        15.06779509      15.06744473      15.06696398      15.06786325      15.07164759      15.07600879      15.08119060      15.08702614      15.09272870      15.09750371      15.10039858      15.10269715      15.10487589      15.10633173      15.10711503      15.10866431      15.11016164      15.11119337      15.11174609      15.11249156
        15.11312942      15.11344944      15.11270374      15.11152096      15.11261160      15.11506919      15.12072873      15.13025247      15.14039104      15.15214334      15.16550856      15.17743228      15.18939696      15.20427288      15.21988272      15.23582049      15.25589534      15.27223774      15.28391930      15.28240715
        15.26672896      15.24458032      15.22385923      15.21332037      15.21210802      15.20994272      15.20458846      15.20239885      15.20419589      15.20700567      15.21159698      15.21585644      15.22385314      15.23410860      15.24549675      15.25421190      15.25863892      15.26140311      15.26134535      15.25865250
        15.25822576      15.25624123      15.25056819      15.25095276      15.25732633      15.26991700      15.28464273      15.30280117      15.32582308      15.34584020      15.36101665      15.37734430      15.39797843      15.41331813      15.42425615      15.42588578      15.42579539      15.42295752      15.41758555      15.41153344
        15.39994342      15.37724386      15.36118781      15.36153976      15.36385564      15.36497828      15.35511546      15.34374158      15.33246867      15.32463751      15.32566319      15.33227051      15.33952185      15.34662091      15.35432070      15.36708905      15.36928556      15.36510761      15.36223362      15.35867757
        15.10341118      15.10391990      15.10377181      15.10432258      15.10731264      15.11127244      15.11675919      15.12299947      15.13041100      15.13657349      15.14199607      15.14652727      15.15043123      15.15420982      15.15736117      15.15987743      15.16382965      15.16837729      15.17168184      15.17413391
        15.17549195      15.17470994      15.17237326      15.17033959      15.16984517      15.17354955      15.17971742      15.18993998      15.20227493      15.21504191      15.23111960      15.24829302      15.26764388      15.28870058      15.31052061      15.33311842      15.35923205      15.38393118      15.40206902      15.40620696
        15.39306677      15.36658254      15.33987241      15.32121798      15.31456515      15.31116220      15.30512123      15.29996411      15.30000667      15.30199195      15.30591361      15.30983540      15.31683854      15.32764190      15.34049754      15.35393012      15.36283293      15.36769038      15.37031776      15.36969501
        15.36888895      15.36812332      15.36473950      15.36519400      15.37126809      15.38386447      15.40065201      15.42095176      15.44675998      15.47328218      15.49783816      15.51797662      15.53561566      15.55411812      15.56900022      15.57575113      15.57579652      15.57742647      15.57637654      15.57409314
        15.56613698      15.54764260      15.52685342      15.52143700      15.52437571      15.52662546      15.52001286      15.50749411      15.49398459      15.48185599      15.47876877      15.48809944      15.49792101      15.50822757      15.51870433      15.53134283      15.53963805      15.53874737      15.53615889      15.53490050
        15.13897354      15.13988517      15.14016970      15.14096100      15.14324147      15.14680089      15.15165652      15.15823794      15.16577543      15.17356900      15.18113481      15.18764531      15.19344242      15.19881981      15.20429499      15.20953365      15.21567008      15.22349094      15.23073643      15.23565315
        15.23768374      15.23700564      15.23463247      15.23260104      15.23079327      15.23383375      15.23956833      15.24901434      15.26188276      15.27517817      15.29196717      15.31273531      15.33743839      15.36335570      15.39039699      15.41931676      15.45031388      15.48202334      15.50592476      15.51736946
        15.51037560      15.48559896      15.45623852      15.43213868      15.41747534      15.41032797      15.40451788      15.39823187      15.39254230      15.39187156      15.39399788      15.39667169      15.40209523      15.41100706      15.42335537      15.43815504      15.45093424      15.46042656      15.46657566      15.46977846
        15.47056201      15.47102505      15.47058945      15.47223233      15.47763999      15.48894898      15.50498362      15.52605139      15.55070019      15.57973072      15.61036796      15.63523027      15.65284845      15.67161509      15.68838984      15.69897093      15.70175059      15.70522175      15.70876852      15.70914911
        15.70586511      15.69582805      15.68001111      15.66992050      15.66966485      15.67150048      15.66861360      15.65795492      15.64592394      15.63185153      15.62383781      15.62946675      15.64176258      15.65489413      15.66785681      15.67988326      15.69362240      15.70044153      15.70114022      15.70037203
        15.17486317      15.17523799      15.17537176      15.17669399      15.17844163      15.18202990      15.18675346      15.19355079      15.20099305      15.20966855      15.21829639      15.22648605      15.23338794      15.23974455      15.24676874      15.25493995      15.26398746      15.27436064      15.28499676      15.29346504
        15.29802031      15.29860312      15.29828749      15.29649379      15.29481916      15.29695699      15.30193371      15.31015238      15.32151416      15.33510671      15.35135426      15.37373630      15.40003075      15.42954067      15.46084140      15.49399387      15.52981144      15.56608832      15.59600559      15.61528947
        15.61700087      15.60069324      15.57129956      15.54305044      15.52148948      15.50917265      15.50151361      15.49459365      15.48438266      15.47758143      15.47584646      15.47799724      15.48161911      15.48764751      15.49685567      15.51084369      15.52564903      15.53921230      15.55008306      15.55802038
        15.56158884      15.56361165      15.56548055      15.57040767      15.57724014      15.58762796      15.60114776      15.62003322      15.64321822      15.67227543      15.70449912      15.73276832      15.75463275      15.77225328      15.78855355      15.80018543      15.80675809      15.81097342      15.81638606      15.82005949
        15.82161305      15.81971817      15.81190973      15.80363014      15.80127843      15.80209823      15.80123595      15.79378822      15.78468840      15.77243646      15.76051788      15.76067337      15.77321573      15.78771833      15.80228337      15.81589154      15.83296880      15.84853363      15.85460500      15.85532507
        15.21036642      15.21024327      15.21005750      15.21105570      15.21276212      15.21610885      15.22139343      15.22818136      15.23578056      15.24442672      15.25369891      15.26312509      15.27085773      15.27842797      15.28688671      15.29706401      15.30867627      15.32107755      15.33374169      15.34533267
        15.35389049      15.35825724      15.36066253      15.36027889      15.36005355      15.36185245      15.36642529      15.37385290      15.38319414      15.39646726      15.41253547      15.43485225      15.46107888      15.49195579      15.52515979      15.56083406      15.59876878      15.63702748      15.67176802      15.70064970
        15.71535171      15.70897976      15.68312974      15.65064748      15.62533808      15.60831963      15.59678466      15.58775439      15.57569978      15.56408250      15.55722822      15.55616451      15.55668345      15.55976615      15.56567228      15.57709574      15.59191485      15.60737491      15.62302237      15.63571089
        15.64306111      15.64667755      15.65115342      15.65817688      15.66834122      15.67834674      15.69031939      15.70564009      15.72792036      15.75540438      15.78681189      15.81625598      15.84122338      15.85980987      15.87411009      15.88589203      15.89428828      15.89971041      15.90542556      15.91171078
        15.91689673      15.92066385      15.92004084      15.91640400      15.91648293      15.91758148      15.91832649      15.91580319      15.90996041      15.90213999      15.89126667      15.88691121      15.89458484      15.90919428      15.92503097      15.94171645      15.96162571      15.98247329      15.99183367      15.99553077
        15.24399277      15.24352813      15.24358803      15.24384004      15.24564727      15.24882355      15.25423903      15.26082946      15.26824518      15.27672950      15.28647320      15.29665406      15.30560618      15.31464084      15.32470576      15.33589445      15.34894753      15.36274828      15.37674438      15.39052438
        15.40243290      15.41196122      15.41837891      15.42107561      15.42371877      15.42601216      15.43082779      15.43814908      15.44748705      15.46022757      15.47635334      15.49692671      15.52316483      15.55384500      15.58687724      15.62247898      15.65938464      15.69707594      15.73457793      15.77184482
        15.80029831      15.80745530      15.78872723      15.75551607      15.72595278      15.70519808      15.69038782      15.67856708      15.66543277      15.65299721      15.64295613      15.63596198      15.63176848      15.63182285      15.63484064      15.64210861      15.65564025      15.67197289      15.69012227      15.70510696
        15.71604504      15.72277931      15.72971334      15.73779565      15.74931544      15.76063395      15.77215438      15.78712736      15.80693435      15.83198485      15.86093637      15.89003649      15.91594277      15.93621532      15.95040643      15.96071474      15.96949850      15.97586132      15.98244618      15.98915224
        15.99604090      16.00280165      16.00912209      16.01135609      16.01397072      16.01657106      16.01900484      16.02190358      16.02110673      16.01865885      16.01311709      16.00690979      16.00923601      16.02203139      16.03843262      16.05898567      16.08332799      16.10541351      16.11703090      16.12214996
        15.27704068      15.27627380      15.27639596      15.27617433      15.27766449      15.28108457      15.28608753      15.29206457      15.29910731      15.30754933      15.31717762      15.32749619      15.33778442      15.34821108      15.35930113      15.37147146      15.38514735      15.39988554      15.41508250      15.43074143
        15.44540605      15.45954008      15.47052836      15.47773677      15.48321105      15.48761300      15.49354106      15.50182002      15.51303772      15.52571010      15.54162658      15.56054099      15.58607028      15.61540663      15.64654993      15.67948588      15.71370408      15.74884872      15.78760160      15.82952474
        15.86773236      15.88895841      15.88278553      15.85612595      15.82422958      15.79908312      15.78051540      15.76610048      15.75230711      15.74020239      15.72983895      15.71940695      15.71081374      15.70678854      15.70636390      15.70934299      15.72037227      15.73746992      15.75522698      15.77108756
        15.78469473      15.79429223      15.80274420      15.81211334      15.82310070      15.83540236      15.84709044      15.86227617      15.88047228      15.90354546      15.92952636      15.95577991      15.98011568      16.00148626      16.01671665      16.02598504      16.03485064      16.04177729      16.04887402      16.05670255
        16.06404557      16.07275800      16.08287035      16.09148790      16.09638207      16.10052418      16.10479357      16.11005425      16.11454555      16.11725018      16.11721653      16.11412808      16.11496268      16.12510465      16.14193983      16.16656706      16.19399618      16.21624339      16.23056501      16.23545950
        15.30954753      15.30947585      15.30954885      15.30921857      15.31016022      15.31326596      15.31788474      15.32324223      15.32972514      15.33762424      15.34694076      15.35705462      15.36809116      15.37951191      15.39122601      15.40407706      15.41781993      15.43300039      15.44946597      15.46663109
        15.48425105      15.50157179      15.51665356      15.52851090      15.53746534      15.54568153      15.55398715      15.56377401      15.57627713      15.58977844      15.60525197      15.62321685      15.64618730      15.67333014      15.70201235      15.73177633      15.76279150      15.79583722      15.83473791      15.87817299
        15.92237163      15.95395997      15.96210572      15.94649987      15.91923803      15.89147482      15.86928809      15.85158089      15.83659685      15.82336692      15.81333477      15.80285300      15.79326738      15.78594358      15.78225346      15.78206800      15.78975523      15.80536171      15.82189571      15.83800843
        15.85267318      15.86392853      15.87306390      15.88259309      15.89286395      15.90307946      15.91503854      15.92891211      15.94705731      15.96833066      15.99078170      16.01295813      16.03435419      16.05474530      16.07041618      16.08055899      16.08960194      16.09745816      16.10507242      16.11408268
        16.12270202      16.13307857      16.14414940      16.15545533      16.16361274      16.16939431      16.17542786      16.18231000      16.18985862      16.19564599      16.19947921      16.20199500      16.20613022      16.21647300      16.23454187      16.26011097      16.28724008      16.31060175      16.32673913      16.33241352
        15.34125836      15.34174121      15.34205134      15.34199107      15.34260858      15.34514750      15.34912395      15.35398375      15.35981965      15.36660785      15.37567621      15.38547087      15.39628221      15.40819189      15.42037938      15.43303533      15.44701611      15.46228430      15.47941737      15.49773051
        15.51732928      15.53713755      15.55605037      15.57259694      15.58642894      15.59927070      15.61114264      15.62275940      15.63539687      15.64917478      15.66411709      15.68172319      15.70268906      15.72737041      15.75358073      15.78034194      15.80845765      15.83972941      15.87751986      15.92162427
        15.96800217      16.00600576      16.02723876      16.02367752      16.00519057      15.98034587      15.95720000      15.93692976      15.92014771      15.90436707      15.89328149      15.88439921      15.87638362      15.86961651      15.86493615      15.86269204      15.86634792      15.87770007      15.89295714      15.90802186
        15.92287144      15.93516815      15.94423251      15.95125864      15.95885411      15.96640976      15.97678694      15.98938064      16.00625481      16.02486669      16.04408744      16.06354541      16.08168505      16.09936573      16.11443669      16.12583801      16.13540744      16.14465653      16.15337049      16.16262843
        16.17297229      16.18434331      16.19582880      16.20766737      16.21843718      16.22686384      16.23496260      16.24333081      16.25219743      16.25958870      16.26600496      16.27266152      16.28265953      16.29609077      16.31586595      16.34027557      16.36551101      16.38853137      16.40448320      16.41097231
        15.37281242      15.37293109      15.37308069      15.37336665      15.37388514      15.37597625      15.37905492      15.38305616      15.38806886      15.39425793      15.40261456      15.41154341      15.42182316      15.43353015      15.44564395      15.45818515      15.47211959      15.48739251      15.50457540      15.52378502
        15.54429366      15.56661760      15.58906528      15.61033972      15.62905809      15.64600338      15.66173682      15.67567341      15.68860520      15.70196946      15.71661203      15.73416576      15.75480366      15.77729026      15.80092304      15.82430360      15.84987001      15.87967517      15.91712674      15.96154308
        16.00732286      16.04853705      16.07868552      16.08722657      16.07768095      16.05942481      16.03847223      16.01879110      16.00034638      15.98240015      15.96951949      15.96271763      15.95773892      15.95370932      15.95116583      15.94924406      15.94889768      15.95527480      15.96762179      15.98184622
        15.99614176      16.00788787      16.01534624      16.01832315      16.02105798      16.02589436      16.03357433      16.04495305      16.05921732      16.07506714      16.09152639      16.10823618      16.12379520      16.13846750      16.15140429      16.16339367      16.17382329      16.18431729      16.19460888      16.20419795
        16.21528566      16.22709908      16.23946630      16.25209511      16.26456656      16.27589947      16.28642040      16.29599341      16.30589123      16.31555107      16.32421294      16.33439267      16.34837243      16.36571198      16.38686082      16.40998828      16.43204881      16.45288221      16.46797283      16.47467130
        15.40395451      15.40360777      15.40366875      15.40422637      15.40440156      15.40565950      15.40775452      15.41085216      15.41509355      15.42061532      15.42768383      15.43581235      15.44541598      15.45648593      15.46824257      15.48057216      15.49389275      15.50911036      15.52647755      15.54622471
        15.56738280      15.59167901      15.61775376      15.64286889      15.66546601      15.68583237      15.70464478      15.72089877      15.73504584      15.74842853      15.76344282      15.78152365      15.80251788      15.82366599      15.84433138      15.86464179      15.88805612      15.91734648      15.95513265      15.99829149
        16.04218461      16.08427953      16.11912807      16.13768920      16.13744670      16.12623535      16.11027251      16.09429297      16.07623447      16.05774436      16.04389429      16.03783256      16.03578733      16.03533062      16.03677995      16.03769975      16.03595758      16.03753357      16.04550984      16.05834546
        16.07214893      16.08200275      16.08697054      16.08591115      16.08339290      16.08417054      16.08835751      16.09705362      16.10813240      16.12163437      16.13544664      16.14874956      16.16215355      16.17375500      16.18446973      16.19569929      16.20634842      16.21730520      16.22828486      16.23863591
        16.24979124      16.26204468      16.27524694      16.28937322      16.30361263      16.31800295      16.33091792      16.34271878      16.35384541      16.36597503      16.37761776      16.39048119      16.40591913      16.42505663      16.44614156      16.46715892      16.48648868      16.50455815      16.51899518      16.52588828
        15.43288148      15.43273074      15.43317956      15.43413547      15.43448907      15.43473873      15.43579717      15.43807229      15.44164217      15.44632560      15.45192455      15.45947742      15.46861135      15.47896390      15.48997847      15.50165403      15.51440543      15.52939668      15.54695292      15.56678300
        15.58871672      15.61475234      15.64353853      15.67126756      15.69645916      15.71975190      15.74115178      15.75984639      15.77574997      15.79047385      15.80637913      15.82487251      15.84540624      15.86550332      15.88345989      15.90193889      15.92377013      15.95261507      15.98985575      16.03158673
        16.07374910      16.11443010      16.15121073      16.17547353      16.18323936      16.17962650      16.17025331      16.15914449      16.14634333      16.13038981      16.11710477      16.11060677      16.10982042      16.11303251      16.11862557      16.12345600      16.12328931      16.12130765      16.12541769      16.13631918
        16.14831046      16.15656836      16.15932747      16.15513124      16.14659036      16.14245986      16.14253395      16.14730121      16.15518096      16.16558869      16.17685797      16.18712694      16.19768649      16.20667456      16.21523848      16.22466583      16.23470809      16.24510215      16.25557975      16.26628628
        16.27754235      16.29016655      16.30459779      16.32029640      16.33667505      16.35397309      16.36932146      16.38358716      16.39659548      16.41026132      16.42392749      16.43797924      16.45423229      16.47323677      16.49295912      16.51196896      16.52954480      16.54605611      16.55955416      16.56679028
        15.45819623      15.45909752      15.46029872      15.46219121      15.46354656      15.46361239      15.46393576      15.46499666      15.46749928      15.47168891      15.47639735      15.48343779      15.49246128      15.50197169      15.51208743      15.52278467      15.53503807      15.54973186      15.56734856      15.58734901
        15.60991948      15.63684965      15.66697891      15.69658297      15.72389046      15.74959593      15.77303096      15.79352692      15.81131297      15.82752004      15.84422463      15.86273147      15.88203610      15.90085932      15.91695681      15.93440835      15.95535838      15.98374127      16.02004775      16.06097443
        16.10157808      16.13973803      16.17610623      16.20328839      16.21707526      16.22073952      16.21830314      16.21258978      16.20670536      16.19738944      16.18755565      16.18134316      16.18066442      16.18578083      16.19404719      16.20325154      16.20755245      16.20582654      16.20650155      16.21376102
        16.22346687      16.23068189      16.23108426      16.22364410      16.20961983      16.19954241      16.19574989      16.19633842      16.20057537      16.20762019      16.21607157      16.22380995      16.23123921      16.23783203      16.24412768      16.25158943      16.26058438      16.27021672      16.27970639      16.28976552
        16.30095175      16.31376126      16.32915798      16.34636800      16.36543164      16.38493440      16.40293021      16.41892680      16.43342902      16.44759816      16.46140534      16.47617319      16.49297948      16.51172028      16.53042668      16.54810986      16.56463842      16.58054572      16.59289694      16.60016977
        15.48141571      15.48324249      15.48554468      15.48852187      15.49104102      15.49196666      15.49230566      15.49229026      15.49358675      15.49692444      15.50186097      15.50869860      15.51726186      15.52616035      15.53523459      15.54480827      15.55685164      15.57127729      15.58895310      15.60867283
        15.63144576      15.65823827      15.68923120      15.72046638      15.74944501      15.77622887      15.80069837      15.82243959      15.84167207      15.85902650      15.87629668      15.89424270      15.91238919      15.92961993      15.94494632      15.96167003      15.98224697      16.01008418      16.04570530      16.08624270
        16.12563262      16.16151914      16.19627441      16.22527144      16.24388358      16.25379581      16.25788698      16.25804905      16.25741512      16.25553462      16.25203943      16.24894284      16.24924113      16.25402820      16.26332528      16.27568996      16.28580888      16.28937298      16.28915849      16.29305971
        16.30062872      16.30546856      16.30182948      16.28975929      16.27172406      16.25562639      16.24721304      16.24344674      16.24393569      16.24748395      16.25272283      16.25823140      16.26273392      16.26707338      16.27164512      16.27751212      16.28529428      16.29392393      16.30248502      16.31149648
        16.32217116      16.33495041      16.35103490      16.36983338      16.39129338      16.41285493      16.43270714      16.44956170      16.46470084      16.47863571      16.49195667      16.50673244      16.52395310      16.54271154      16.56112721      16.57771314      16.59361563      16.60865347      16.62011381      16.62656750
        15.50337639      15.50558424      15.50887784      15.51234023      15.51567026      15.51776217      15.51896444      15.51916061      15.51972178      15.52222572      15.52758579      15.53464003      15.54226207      15.55050036      15.55873124      15.56776317      15.57935086      15.59359036      15.61085460      15.63019139
        15.65261795      15.67897942      15.70995817      15.74200771      15.77158728      15.79830455      15.82339226      15.84608648      15.86629229      15.88424173      15.90136851      15.91873690      15.93640465      15.95260129      15.96768870      15.98394787      16.00441250      16.03168708      16.06672425      16.10729697
        16.14596338      16.18023252      16.21357152      16.24332882      16.26549991      16.28049227      16.28995854      16.29544511      16.29932332      16.30288579      16.30550031      16.30753277      16.31082215      16.31578423      16.32527228      16.33896906      16.35313525      16.36371963      16.36878996      16.37265855
        16.37758588      16.37864067      16.37033373      16.35149207      16.32933055      16.30821744      16.29453328      16.28660657      16.28284145      16.28278240      16.28496515      16.28846063      16.29111775      16.29399690      16.29733646      16.30211696      16.30839667      16.31586015      16.32370229      16.33179519
        16.34181198      16.35467818      16.37136434      16.39153510      16.41490659      16.43804439      16.45860964      16.47591835      16.49113494      16.50468352      16.51710750      16.53141603      16.54815658      16.56695729      16.58541851      16.60154903      16.61677259      16.63067614      16.64113686      16.64656126
        15.52448575      15.52666489      15.53031513      15.53383080      15.53724899      15.54050044      15.54278565      15.54421670      15.54519637      15.54771492      15.55297834      15.55993289      15.56704651      15.57460085      15.58206882      15.59107225      15.60220631      15.61630518      15.63284528      15.65180332
        15.67345852      15.69880104      15.72868686      15.76040673      15.78944759      15.81625943      15.84132844      15.86421666      15.88488925      15.90321939      15.92043661      15.93790931      15.95544812      15.97123362      15.98595779      16.00198966      16.02248440      16.04946300      16.08404450      16.12459307