# File generated by Flopy version 3.6.0 on 10/31/2024 at 15:18:48.
BEGIN griddata
  strt
    INTERNAL  FACTOR  1.0
        15.00000000      15.00000000      15.00000000      15.00000000      15.00000000      15.00000000      15.00000000      15.00000000      15.00000000      15.00000000      15.00000000      15.00000000      15.00000000      15.00000000      15.00000000      15.00000000      15.00000000      15.00000000      15.00000000      15.00000000
        15.00000000      15.00000000      15.00000000      15.00000000      15.00000000      15.00000000      15.00000000      15.00000000      15.00000000      15.00000000      15.00000000      15.00000000      15.00000000      15.00000000      15.00000000      15.00000000      15.00000000      15.00000000      15.00000000      15.00000000
        15.00000000      15.00000000      15.00000000      15.00000000      15.00000000      15.00000000      15.00000000      15.00000000      15.00000000      15.00000000      15.00000000      15.00000000      15.00000000      15.00000000      15.00000000      15.00000000      15.00000000      15.00000000      15.00000000      15.00000000
        15.00000000      15.00000000      15.00000000      15.00000000      15.00000000      15.00000000      15.00000000      15.00000000      15.00000000      15.00000000      15.00000000      15.00000000      15.00000000      15.00000000      15.00000000      15.00000000      15.00000000      15.00000000      15.00000000      15.00000000
        15.00000000      15.00000000      15.00000000      15.00000000      15.00000000      15.00000000      15.00000000      15.00000000      15.00000000      15.00000000      15.00000000      15.00000000      15.00000000      15.00000000      15.00000000      15.00000000      15.00000000      15.00000000      15.00000000      15.00000000
        15.03950749      15.03858199      15.03693215      15.03518006      15.03303595      15.03013962      15.02697656      15.02392722      15.02129648      15.01888289      15.01734054      15.01598659      15.01467890      15.01388683      15.01359465      15.01359057      15.01362862      15.01391229      15.01423895      15.01425937
        15.01430118      15.01482096      15.01572211      15.01667170      15.01764701      15.01877658      15.02003435      15.02146657      15.02306209      15.02469705      15.02732631      15.03060677      15.03448136      15.03869531      15.04348794      15.04750862      15.05105897      15.05339153      15.05652535      15.06038696
        15.06324249      15.06556595      15.06892481      15.07370171      15.08098960      15.09155260      15.10385197      15.11962581      15.13554294      15.15180414      15.17028728      15.18877511      15.20298656      15.21399308      15.22193904      15.21999432      15.21433722      15.19839508      15.18404705      15.17215442
        15.15633029      15.13541258      15.11387026      15.09688525      15.08489384      15.07599456      15.06994509      15.06594378      15.06452472      15.06626217      15.06980901      15.07389088      15.07804796      15.08246427      15.08678261      15.09213593      15.09874246      15.10372273      15.10660943      15.10901979
        15.11232228      15.11670564      15.12220653      15.12922552      15.13855875      15.15040447      15.16056615      15.16645636      15.16705192      15.16659692      15.16630930      15.16614746      15.16637248      15.17036321      15.18114196      15.19296839      15.20183016      15.20626915      15.20704294      15.20919829
        15.07256254      15.07041415      15.06732501      15.06393851      15.05989918      15.05523832      15.05067503      15.04600689      15.04134208      15.03720824      15.03392701      15.03134351      15.02889341      15.02720335      15.02642773      15.02625213      15.02628517      15.02654333      15.02694993      15.02725705
        15.02758595      15.02846539      15.02973038      15.03132246      15.03318901      15.03520376      15.03740844      15.04016279      15.04384148      15.04791859      15.05329785      15.06012181      15.06801899      15.07629251      15.08502661      15.09350793      15.10091129      15.10675105      15.11213787      15.11857984
        15.12506657      15.12984750      15.13574837      15.14390474      15.15533978      15.17139381      15.19183868      15.21745697      15.24623937      15.27716176      15.30983200      15.34313945      15.37041917      15.39009024      15.40317859      15.40366342      15.39672327      15.37609180      15.34939026      15.32409246
        15.29651077      15.26253877      15.22571067      15.19505114      15.17448254      15.15892221      15.14822767      15.14052141      15.13656718      15.13720031      15.14208320      15.14836771      15.15604833      15.16316498      15.17259667      15.18350981      15.19544575      15.20535677      15.21241872      15.21701353
        15.22406602      15.23432641      15.24464845      15.25655994      15.27149234      15.28826061      15.30388451      15.31387774      15.31734828      15.32029909      15.32302788      15.32499364      15.32830310      15.33186750      15.34341248      15.35983186      15.37708310      15.38703424      15.39322637      15.39450027
        15.09996505      15.09714755      15.09288697      15.08823818      15.08303931      15.07756258      15.07222983      15.06678635      15.06074463      15.05517164      15.05031250      15.04649111      15.04306554      15.04050721      15.03901418      15.03838216      15.03826899      15.03829169      15.03843944      15.03892467
        15.03969374      15.04068738      15.04210222      15.04416467      15.04673270      15.04950123      15.05264585      15.05667458      15.06216179      15.06890465      15.07746723      15.08808772      15.10000608      15.11263176      15.12532165      15.13747273      15.14827716      15.15766230      15.16530410      15.17392854
        15.18238683      15.18988444      15.19864756      15.20994256      15.22507669      15.24483931      15.27047353      15.30201150      15.34009955      15.38163311      15.42451130      15.46818312      15.50613027      15.53542836      15.55307657      15.55845979      15.55036373      15.52894258      15.49442669      15.45857219
        15.42313580      15.38305477      15.33755674      15.29619768      15.26727428      15.24700453      15.23185973      15.22211894      15.21576751      15.21480578      15.21966134      15.22775707      15.23699065      15.24592360      15.25865463      15.27439347      15.29053405      15.30531893      15.31730297      15.32569551
        15.33586513      15.35051672      15.36671312      15.38194198      15.39879781      15.41632564      15.43430811      15.44626906      15.45138128      15.45678319      15.46437601      15.47107671      15.47820740      15.48518176      15.49643674      15.51326123      15.53441221      15.55138496      15.56499440      15.57026941
        15.12294527      15.11998548      15.11498326      15.10956515      15.10356533      15.09761786      15.09187458      15.08600987      15.07944370      15.07268337      15.06667157      15.06179624      15.05763357      15.05400953      15.05159907      15.05025878      15.04977427      15.04961919      15.04947034      15.04975625
        15.05078919      15.05206706      15.05372044      15.05613029      15.05910904      15.06259342      15.06678209      15.07222302      15.07924252      15.08849295      15.10024519      15.11449210      15.13020761      15.14706073      15.16384483      15.17930870      15.19335543      15.20558306      15.21627052      15.22614149
        15.23603040      15.24672082      15.25864713      15.27392104      15.29421323      15.31861521      15.34757836      15.38241582      15.42575845      15.47381492      15.52327889      15.57228403      15.61758692      15.65442283      15.67891867      15.68987706      15.68450515      15.66360306      15.62714007      15.58489905
        15.54563658      15.50387936      15.45612510      15.40762086      15.36939157      15.34376457      15.32521429      15.31356370      15.30614151      15.30464094      15.30917239      15.31784170      15.32652640      15.33662835      15.34964838      15.36773694      15.38769134      15.40756903      15.42445558      15.43789691
        15.45022654      15.46686121      15.48620561      15.50440495      15.52172169      15.53882629      15.55390522      15.56597199      15.57426753      15.58005218      15.58979814      15.60119737      15.61222793      15.62419915      15.63783768      15.65481075      15.67737400      15.70201214      15.72272987      15.73276804
        15.14321536      15.14000183      15.13460240      15.12875035      15.12247177      15.11593100      15.10988232      15.10378871      15.09720000      15.08988657      15.08294742      15.07713978      15.07248105      15.06795218      15.06442292      15.06219308      15.06103335      15.06056288      15.06025842      15.06035408
        15.06139786      15.06301522      15.06513346      15.06775833      15.07116025      15.07535560      15.08051668      15.08730794      15.09592600      15.10717357      15.12179695      15.13930944      15.15821314      15.17867592      15.19896690      15.21758531      15.23449211      15.24968368      15.26308170      15.27450542
        15.28654598      15.30012124      15.31568322      15.33538544      15.36082367      15.39043685      15.42294873      15.46069924      15.50546493      15.55504982      15.60661727      15.65789531      15.70652853      15.74774504      15.77925361      15.79557611      15.79562334      15.77921001      15.74645818      15.70379395
        15.66374329      15.62250813      15.57573197      15.52425481      15.47846054      15.44521393      15.42374400      15.41103074      15.40408415      15.40263702      15.40655782      15.41478702      15.42428676      15.43600531      15.44939838      15.46783098      15.49032110      15.51369877      15.53339159      15.55093686
        15.56593034      15.58295986      15.60190356      15.62159848      15.63908148      15.65482833      15.66654664      15.67713617      15.68713141      15.69449945      15.70339750      15.71673646      15.73158158      15.74703953      15.76295806      15.78353269      15.80848134      15.83795822      15.86296600      15.87621291
        15.16224814      15.15857662      15.15304051      15.14681011      15.14070171      15.13392305      15.12741154      15.12125134      15.11455705      15.10703514      15.09945044      15.09278553      15.08737809      15.08235568      15.07784382      15.07460139      15.07249096      15.07144816      15.07116841      15.07126417
        15.07211996      15.07390940      15.07636498      15.07927909      15.08318726      15.08819738      15.09438877      15.10227264      15.11220044      15.12523550      15.14239558      15.16263949      15.18482940      15.20864046      15.23145802      15.25250557      15.27217417      15.29008214      15.30556689      15.31941638
        15.33428065      15.35052339      15.37001632      15.39408549      15.42370067      15.45779975      15.49441681      15.53400166      15.57842061      15.62688977      15.67783953      15.72907847      15.77781815      15.82237441      15.85903719      15.88062784      15.88569586      15.87543364      15.85086608      15.81402312
        15.77497464      15.73735705      15.69283328      15.64052104      15.59013048      15.54938811      15.52269783      15.50901344      15.50460211      15.50420581      15.50831026      15.51671151      15.52799905      15.54226887      15.55906915      15.57919042      15.60334108      15.62724566      15.64791316      15.66709786
        15.68387993      15.69952797      15.71622768      15.73455513      15.75201548      15.76598175      15.77719410      15.78524171      15.79289534      15.80183447      15.81065717      15.82317063      15.83949799      15.85793843      15.87705994      15.90164229      15.92848450      15.95912648      15.98499764      16.00203154
        15.18057275      15.17654761      15.17091098      15.16446312      15.15829575      15.15175333      15.14482967      15.13835394      15.13162495      15.12403952      15.11597367      15.10857923      15.10226279      15.09673270      15.09151339      15.08740734      15.08442844      15.08272277      15.08231996      15.08252437
        15.08329374      15.08515646      15.08778825      15.09109139      15.09558093      15.10142383      15.10862947      15.11748608      15.12862236      15.14303118      15.16182566      15.18443478      15.21028578      15.23748914      15.26280468      15.28623147      15.30828744      15.32823576      15.34580934      15.36265126
        15.38049875      15.39968596      15.42278334      15.45113310      15.48468371      15.52217915      15.56125715      15.60276214      15.64730338      15.69470864      15.74366133      15.79223489      15.83954898      15.88506031      15.92434010      15.95151132      15.96261696      15.95863459      15.94252886      15.91509669
        15.88108940      15.84757670      15.80778317      15.75881555      15.70816092      15.66291695      15.62966545      15.61149918      15.60854765      15.61067053      15.61665735      15.62585244      15.63909560      15.65602951      15.67754792      15.70139712      15.72689306      15.75096063      15.77166203      15.78963510
        15.80617871      15.81908614      15.83290123      15.84853659      15.86436060      15.87604103      15.88583686      15.89241424      15.89748483      15.90549966      15.91516687      15.92774730      15.94326617      15.96254388      15.98519164      16.01155978      16.03922717      16.06774783      16.09375076      16.11205909
        15.19866805      15.19446376      15.18868871      15.18215785      15.17552993      15.16886534      15.16186560      15.15477485      15.14800553      15.14053308      15.13221767      15.12409697      15.11702426      15.11081416      15.10516477      15.10035713      15.09678627      15.09436486      15.09355401      15.09381615
        15.09469138      15.09654338      15.09945702      15.10340642      15.10862414      15.11513983      15.12323786      15.13305971      15.14507875      15.16013381      15.17976423      15.20417295      15.23308796      15.26330834      15.29168424      15.31810070      15.34250301      15.36428211      15.38391900      15.40373093
        15.42422221      15.44674423      15.47285773      15.50476394      15.54190946      15.58184061      15.62290212      15.66638351      15.71144069      15.75765551      15.80376952      15.84869037      15.89364902      15.93785865      15.97777996      16.00937067      16.02751091      16.03152876      16.02382328      16.00549715
        15.97911959      15.95001600      15.91702743      15.87467770      15.82865516      15.78358032      15.74629062      15.72193434      15.71454635      15.71765577      15.72625872      15.73772983      15.75422469      15.77517984      15.80047767      15.82674587      15.85313356      15.87781497      15.89791074      15.91432172
        15.92997049      15.94105604      15.95195828      15.96448810      15.97594621      15.98381169      15.98997837      15.99618664      16.00123130      16.00844964      16.01844813      16.03104647      16.04603765      16.06482025      16.08853935      16.11483801      16.14245174      16.16852173      16.19324361      16.21023097
        15.21638235      15.21209213      15.20609175      15.19953110      15.19254241      15.18542238      15.17846671      15.17101901      15.16351907      15.15590211      15.14764743      15.13900376      15.13144391      15.12465950      15.11876855      15.11358725      15.10957780      15.10674060      15.10519100      15.10519088
        15.10616353      15.10813311      15.11138081      15.11602083      15.12199360      15.12930024      15.13809502      15.14873977      15.16112532      15.17654994      15.19640723      15.22181017      15.25271855      15.28575573      15.31729139      15.34678151      15.37397498      15.39804020      15.42002289      15.44248164
        15.46554214      15.49042524      15.51918146      15.55382308      15.59313322      15.63516591      15.67870926      15.72373549      15.76933701      15.81400218      15.85752210      15.89934890      15.94124849      15.98275882      16.02189672      16.05612357      16.08167180      16.09612195      16.09869622      16.08944113
        16.07155176      16.04824312      16.02247785      15.98802209      15.94901637      15.90722945      15.86836906      15.84040195      15.82469539      15.82446577      15.83419050      15.84863068      15.86776120      15.89328850      15.92161640      15.95026924      15.97741352      16.00095400      16.02115826      16.03617822
        16.04909784      16.05979138      16.06832155      16.07801041      16.08501629      16.08782166      16.09017061      16.09510673      16.10186008      16.10908677      16.12066126      16.13326549      16.14859527      16.16756176      16.18936010      16.21253473      16.23760266      16.26289907      16.28621113      16.30295161
        15.23337392      15.22911854      15.22282269      15.21609301      15.20899807      15.20152420      15.19436308      15.18680619      15.17844419      15.17017413      15.16195596      15.15329156      15.14534305      15.13850461      15.13231898      15.12706316      15.12288025      15.11989860      15.11781428      15.11719848
        15.11827206      15.12057055      15.12418849      15.12928748      15.13583904      15.14387266      15.15333401      15.16439593      15.17700230      15.19259249      15.21254124      15.23814014      15.27001118      15.30525282      15.33982393      15.37201898      15.40196936      15.42844071      15.45301830      15.47782748
        15.50348375      15.53076314      15.56178870      15.59784692      15.63836405      15.68217847      15.72853466      15.77532022      15.82076771      15.86364089      15.90425606      15.94353057      15.98250452      16.02172523      16.06018464      16.09661168      16.12923006      16.15479295      16.16930739      16.17143695
        16.16403746      16.14925493      16.12951444      16.10466656      16.07294552      16.03645147      15.99731456      15.96698224      15.94536367      15.93788300      15.94324213      15.95848546      15.97850485      16.00564266      16.03663059      16.06817096      16.09532313      16.11815259      16.13674271      16.15071312
        16.16005995      16.16946566      16.17626855      16.18228333      16.18581629      16.18588609      16.18601044      16.18903616      16.19702006      16.20586381      16.22011454      16.23538303      16.25178528      16.26921776      16.28702812      16.30553165      16.32685525      16.35065084      16.37310968      16.38904973
        15.24986440      15.24552306      15.23890519      15.23173201      15.22448438      15.21681411      15.20918111      15.20142962      15.19257474      15.18367822      15.17556915      15.16745032      15.15931170      15.15252245      15.14639152      15.14105542      15.13671638      15.13371561      15.13160737      15.13062616
        15.13160798      15.13438002      15.13845678      15.14384345      15.15071081      15.15905521      15.16903570      15.18024863      15.19314460      15.20886284      15.22881924      15.25404951      15.28578376      15.32226374      15.35935677      15.39402834      15.42617573      15.45495004      15.48198448      15.50902503
        15.53730321      15.56661813      15.59906118      15.63683546      15.67895989      15.72438351      15.77299495      15.82104780      15.86560782      15.90623628      15.94447347      15.98146098      16.01870244      16.05671184      16.09515496      16.13433082      16.17276601      16.20843115      16.23553090      16.25269801
        16.26033263      16.25792405      16.24546103      16.22832619      16.20374805      16.17463106      16.13807326      16.10489240      16.08044396      16.06469832      16.06054330      16.07098678      16.09020320      16.11526269      16.14593042      16.17857903      16.20539233      16.22723471      16.24316159      16.25591081
        16.26298208      16.26974411      16.27482270      16.27686604      16.27733351      16.27706453      16.27678720      16.28017477      16.28835261      16.30062561      16.31659188      16.33480222      16.35169045      16.36683946      16.38062711      16.39516980      16.41374967      16.43474435      16.45476435      16.46850573
        15.26567228      15.26127197      15.25424382      15.24642266      15.23870864      15.23081000      15.22249805      15.21420688      15.20490596      15.19545487      15.18814289      15.18125247      15.17387811      15.16702955      15.16114365      15.15595361      15.15167506      15.14853935      15.14645825      15.14552681
        15.14636071      15.14938039      15.15374297      15.15943789      15.16646135      15.17503702      15.18523040      15.19642577      15.20940896      15.22541016      15.24542693      15.27016243      15.30081150      15.33749836      15.37611590      15.41274283      15.44667844      15.47764261      15.50658679      15.53547492
        15.56548803      15.59651183      15.63125249      15.67163943      15.71534494      15.76197299      15.81155205      15.85968277      15.90278462      15.94118710      15.97719368      16.01276703      16.04962526      16.08755193      16.12736230      16.16886069      16.21253999      16.25712004      16.29699655      16.33144356
        16.35790935      16.37047112      16.36899788      16.35930198      16.34170926      16.31945770      16.28924465      16.25623517      16.22979179      16.20703468      16.19272453      16.19315244      16.20847789      16.22937766      16.25553412      16.28520666      16.31088925      16.32895168      16.34259493      16.35301717
        16.35915925      16.36305872      16.36664813      16.36690096      16.36515436      16.36396003      16.36441375      16.36976399      16.37929227      16.39345263      16.40945904      16.42722823      16.44363639      16.45754193      16.46924864      16.48125141      16.49726998      16.51629604      16.53400290      16.54575881
        15.28060379      15.27631035      15.26888118      15.26031379      15.25184236      15.24339081      15.23443395      15.22510953      15.21461593      15.20363755      15.19892235      15.19412170      15.18844361      15.18223460      15.17665477      15.17183484      15.16787761      15.16465472      15.16275990      15.16204664
        15.16299237      15.16578974      15.17014943      15.17619259      15.18344188      15.19218664      15.20202033      15.21310394      15.22635740      15.24268189      15.26273185      15.28702429      15.31645601      15.35195126      15.39129780      15.42975460      15.46506296      15.49750297      15.52756437      15.55760218
        15.58931409      15.62255949      15.66006930      15.70314516      15.74876141      15.79584408      15.84418985      15.89078689      15.93198119      15.96837442      16.00273694      16.03791680      16.07515060      16.11456942      16.15563834      16.19837754      16.24630400      16.29880280      16.35114313      16.40225490
        16.44746241      16.47700122      16.49080004      16.49140835      16.48100445      16.46324455      16.44048395      16.41001087      16.38244408      16.35675071      16.33510270      16.32691748      16.33335427      16.34983074      16.36958706      16.39180889      16.41316243      16.42558706      16.43481912      16.44226488
        16.44758268      16.45000311      16.45159627      16.45096120      16.44878205      16.44737032      16.44883371      16.45488953      16.46550357      16.47911126      16.49358200      16.50874546      16.52433981      16.53801784      16.54994821      16.56207416      16.57639750      16.59341837      16.60952982      16.61983952
        15.29452192      15.29023476      15.28241530      15.27298717      15.26379570      15.25479381      15.24528052      15.23485017      15.22224649      15.20395849      15.20787913      15.20592438      15.20198811      15.19706284      15.19216838      15.18799475      15.18460550      15.18173689      15.18027309      15.17999892
        15.18107940      15.18364796      15.18794921      15.19406798      15.20147154      15.21008060      15.21980900      15.23109707      15.24445201      15.26096500      15.28086780      15.30477090      15.33334001      15.36749974      15.40660229      15.44575308      15.48192699      15.51510344      15.54554671      15.57630022
        15.60986455      15.64597088      15.68625040      15.73155913      15.77801891      15.82426937      15.87073427      15.91541913      15.95487092      15.98974561      16.02284150      16.05746143      16.09551067      16.13613475      16.17771275      16.22122606      16.27233165      16.33208070      16.39561453      16.46165758
        16.52462896      16.57219030      16.60161787      16.61429780      16.61341511      16.60082491      16.58328217      16.55663626      16.52745720      16.50294400      16.48072674      16.46546479      16.46245889      16.47274431      16.48742382      16.50071780      16.51235370      16.51831536      16.52145924      16.52462395
        16.52796365      16.52934869      16.52878992      16.52743062      16.52667774      16.52691212      16.52988484      16.53576169      16.54488590      16.55719520      16.56956585      16.58218561      16.59615304      16.61062659      16.62426538      16.63893688      16.65361932      16.66814604      16.68192992      16.69095749
        15.30788623      15.30318293      15.29493894      15.28476167      15.27471799      15.26541677      15.25603602      15.24575653      15.23486754      15.22433193      15.22076149      15.21775770      15.21435938      15.21065430      15.20678777      15.20347875      15.20101043      15.19917576      15.19828735      15.19865090
        15.20001315      15.20284011      15.20715861      15.21305140      15.22051899      15.22926017      15.23925664      15.25051172      15.26397027      15.28063249      15.30037323      15.32398711      15.35185627      15.38500633      15.42284186      15.46107741      15.49735133      15.53091108      15.56162874      15.59296789
        15.62827115      15.66734072      15.70978383      15.75563938      15.80162242      15.84717098      15.89236100      15.93494792      15.97258209      16.00621247      16.03807580      16.07180754      16.10942069      16.15025167      16.19267193      16.23765787      16.29146222      16.35770405      16.43140860      16.51004714
        16.58906445      16.65366985      16.69742456      16.72271566      16.73212749      16.72799577      16.71501246      16.69380134      16.66558639      16.64127487      16.62072287      16.60301506      16.59326089      16.59498325      16.60328853      16.60763183      16.60842805      16.60777747      16.60485569      16.60280480
        16.60252857      16.60109825      16.59852883      16.59651203      16.59721605      16.60035240      16.60538357      16.61165817      16.61928336      16.63002352      16.64076855      16.65254255      16.66452375      16.67893230      16.69459465      16.71118853      16.72699055      16.74104690      16.75199267      16.75910758
        15.32112893      15.31587174      15.30711813      15.29638158      15.28544087      15.27576740      15.26678752      15.25719380      15.24738168      15.23864846      15.23288078      15.22891065      15.22571127      15.22297189      15.22030641      15.21810634      15.21659804      15.21605447      15.21610333      15.21731978
        15.21950844      15.22289470      15.22750642      15.23344423      15.24082335      15.24962886      15.26004694      15.27162069      15.28537640      15.30204273      15.32158299      15.34476517      15.37215027      15.40449916      15.44061991      15.47717152      15.51271000      15.54620647      15.57733794      15.60939913
        15.64594539      15.68682489      15.73075790      15.77618756      15.82079218      15.86581495      15.91003723      15.95023098      15.98615070      16.01824610      16.04888553      16.08158235      16.11746673      16.15739667      16.20068107      16.24821005      16.30547774      16.37795637      16.46157247      16.55116052
        16.64390800      16.72388719      16.78110963      16.81682311      16.83595320      16.84105052      16.83432451      16.81792356      16.79295563      16.76928611      16.74978601      16.73327297      16.72076246      16.71401735      16.71310430      16.71048010      16.70295293      16.69524998      16.68751348      16.68010561
        16.67520054      16.67060845      16.66538944      16.66153611      16.66247313      16.66798590      16.67494305      16.68274783      16.69084346      16.69989640      16.70988630      16.72110732      16.73250820      16.74591012      16.76291051      16.78027005      16.79725396      16.81157188      16.82101874      16.82613704
        15.33458907      15.32913522      15.31989744      15.30862362      15.29683868      15.28654616      15.27774227      15.26891890      15.25971283      15.25133380      15.24466550      15.23978812      15.23655423      15.23446506      15.23291962      15.23194113      15.23155091      15.23194176      15.23320898      15.23550145
        15.23884261      15.24291581      15.24808978      15.25442055      15.26204815      15.27125122      15.28219722      15.29420447      15.30813404      15.32491698      15.34446496      15.36740562      15.39430519      15.42565077      15.45985598      15.49478552      15.52953360      15.56219274      15.59357061      15.62667631