# File generated by Flopy version 3.6.0 on 02/07/2025 at 11:57:25.
BEGIN options
  PRINT_OPTION  summary
  COMPLEXITY  complex
END options

BEGIN linear
  LINEAR_ACCELERATION  bicgstab
END linear

