# File generated by Flopy version 3.7.0 on 06/19/2024 at 15:23:11.
BEGIN options
  BUDGET  FILEOUT  Reference.cbb
  HEAD  FILEOUT  Reference.hds
END options

BEGIN period  1
  SAVE  head  all
  SAVE  budget  all
  PRINT  head  last
END period  1

