# File generated by Flopy version 3.7.0 on 07/29/2024 at 11:44:22.
BEGIN options
END options

BEGIN griddata
  strt
    INTERNAL  FACTOR  1.0
        15.00000000      15.00000000      15.00000000      15.00000000      15.00000000      15.00000000      15.00000000      15.00000000      15.00000000      15.00000000      15.00000000      15.00000000      15.00000000      15.00000000      15.00000000      15.00000000      15.00000000      15.00000000      15.00000000      15.00000000
        15.00000000      15.00000000      15.00000000      15.00000000      15.00000000      15.00000000      15.00000000      15.00000000      15.00000000      15.00000000      15.00000000      15.00000000      15.00000000      15.00000000      15.00000000      15.00000000      15.00000000      15.00000000      15.00000000      15.00000000
        15.00000000      15.00000000      15.00000000      15.00000000      15.00000000      15.00000000      15.00000000      15.00000000      15.00000000      15.00000000      15.00000000      15.00000000      15.00000000      15.00000000      15.00000000      15.00000000      15.00000000      15.00000000      15.00000000      15.00000000
        15.00000000      15.00000000      15.00000000      15.00000000      15.00000000      15.00000000      15.00000000      15.00000000      15.00000000      15.00000000      15.00000000      15.00000000      15.00000000      15.00000000      15.00000000      15.00000000      15.00000000      15.00000000      15.00000000      15.00000000
        15.00000000      15.00000000      15.00000000      15.00000000      15.00000000      15.00000000      15.00000000      15.00000000      15.00000000      15.00000000      15.00000000      15.00000000      15.00000000      15.00000000      15.00000000      15.00000000      15.00000000      15.00000000      15.00000000      15.00000000
        15.10297977      15.10586079      15.10974444      15.11261162      15.11205667      15.10899517      15.10447832      15.10057742      15.09841381      15.09777816      15.09621704      15.09183240      15.08585709      15.07918108      15.07300506      15.06685413      15.06067942      15.05450943      15.04810895      15.04217921
        15.03652109      15.03172077      15.02746495      15.02356021      15.02021496      15.01771532      15.01633297      15.01565792      15.01527836      15.01475403      15.01416613      15.01358987      15.01335850      15.01352086      15.01414160      15.01503502      15.01592218      15.01726937      15.01939443      15.02255349
        15.02650648      15.03071853      15.03434314      15.03734827      15.04006909      15.04239516      15.04500692      15.04743103      15.04931222      15.05038587      15.05079766      15.05183513      15.05500603      15.05909414      15.06309123      15.06638716      15.06833769      15.06903428      15.06886705      15.06686454
        15.06385401      15.06036744      15.05629745      15.05168442      15.04798867      15.04450851      15.04113074      15.03849677      15.03786185      15.03997660      15.04461217      15.05086766      15.05877412      15.06750274      15.07671324      15.08558667      15.09376777      15.10168727      15.10740618      15.11140886
        15.11479341      15.11919600      15.12522515      15.13310232      15.14251839      15.15479886      15.16788967      15.18084517      15.19083751      15.19291059      15.18751736      15.17801587      15.16717796      15.15485308      15.14178894      15.13059266      15.11899635      15.10841998      15.10242097      15.10070871
        15.17174947      15.17412372      15.17689132      15.17802356      15.17588897      15.17138969      15.16535321      15.15891463      15.15329703      15.14835070      15.14238187      15.13506973      15.12723812      15.11962214      15.11219602      15.10438025      15.09636412      15.08821340      15.07971649      15.07126964
        15.06332567      15.05569294      15.04894066      15.04310463      15.03825343      15.03472069      15.03233526      15.03070162      15.02943366      15.02818275      15.02724748      15.02676765      15.02674364      15.02727271      15.02828395      15.02970130      15.03150374      15.03450067      15.03899190      15.04486327
        15.05152870      15.05833342      15.06430926      15.06950232      15.07409450      15.07812007      15.08217360      15.08594713      15.08945923      15.09267191      15.09585515      15.09993975      15.10496639      15.10982734      15.11376031      15.11581777      15.11641932      15.11553573      15.11317161      15.10862711
        15.10326428      15.09781579      15.09236328      15.08682323      15.08175050      15.07700805      15.07311968      15.07116636      15.07245100      15.07763454      15.08572672      15.09666843      15.11031195      15.12592270      15.14239204      15.15795269      15.17234101      15.18398607      15.19246444      15.19975199
        15.20785120      15.21886377      15.23372699      15.25251575      15.27392326      15.29672727      15.31820488      15.33699887      15.34723422      15.34483205      15.33449440      15.31754249      15.29843088      15.27959617      15.26039494      15.24372755      15.23023252      15.22071918      15.21576355      15.21501473
        15.21481723      15.21489606      15.21431984      15.21247964      15.20915057      15.20379467      15.19678570      15.18893302      15.18120273      15.17380079      15.16614056      15.15831147      15.15056429      15.14306453      15.13555382      15.12760743      15.11928289      15.11059919      15.10169807      15.09261670
        15.08386176      15.07527222      15.06734680      15.06053802      15.05482733      15.05049829      15.04716145      15.04437738      15.04199033      15.04027820      15.03936724      15.03934631      15.04004340      15.04101665      15.04233088      15.04438305      15.04765645      15.05255904      15.05905986      15.06649638
        15.07447059      15.08249100      15.08982101      15.09635390      15.10240588      15.10849582      15.11466517      15.12055831      15.12569617      15.13063495      15.13552333      15.14030091      15.14458335      15.14816064      15.15044748      15.15121729      15.15059801      15.14826907      15.14410807      15.13901170
        15.13356346      15.12778066      15.12171718      15.11548391      15.10951938      15.10474023      15.10211910      15.10246362      15.10658511      15.11454144      15.12635618      15.14203373      15.15965948      15.17826002      15.19717693      15.21529718      15.23196154      15.24556203      15.25741615      15.27030942
        15.28636781      15.30734455      15.33232303      15.35977813      15.38767330      15.41365066      15.43511879      15.45011977      15.45664488      15.45197249      15.43943215      15.42101306      15.39957457      15.37846631      15.35865043      15.34292272      15.33154545      15.32481772      15.32063216      15.31923487
        15.23662626      15.23552287      15.23322482      15.22982678      15.22535978      15.21938681      15.21188568      15.20353628      15.19527656      15.18749210      15.18005575      15.17273031      15.16542149      15.15801715      15.15067901      15.14297429      15.13499644      15.12650595      15.11775855      15.10902137
        15.10041626      15.09200575      15.08387335      15.07652172      15.07028189      15.06502640      15.06070415      15.05706595      15.05416699      15.05243443      15.05190059      15.05240943      15.05354640      15.05505950      15.05712106      15.06023791      15.06519971      15.07179865      15.07919329      15.08693104
        15.09505777      15.10312155      15.11081768      15.11852847      15.12665469      15.13479585      15.14250551      15.14928282      15.15489716      15.15973687      15.16422099      15.16826435      15.17174343      15.17455915      15.17584044      15.17568830      15.17419549      15.17144171      15.16779813      15.16366222
        15.15889949      15.15358315      15.14801308      15.14274881      15.13809947      15.13487923      15.13432254      15.13695116      15.14355381      15.15403533      15.16843528      15.18567762      15.20343821      15.22139731      15.23940645      15.25780374      15.27556625      15.29233189      15.30932720      15.32863755
        15.35124421      15.37658079      15.40433067      15.43405298      15.46261712      15.48731637      15.50584733      15.51732100      15.52118252      15.51743354      15.50740362      15.49297763      15.47492930      15.45556336      15.43845653      15.42469502      15.41491198      15.40755601      15.40214377      15.39938835
        15.24543803      15.24389907      15.24090380      15.23668343      15.23157762      15.22560991      15.21853389      15.21087917      15.20316770      15.19582263      15.18880448      15.18187190      15.17500369      15.16797936      15.16092226      15.15366374      15.14615115      15.13839546      15.13024322      15.12215879
        15.11424763      15.10634639      15.09858778      15.09118373      15.08450083      15.07856312      15.07338453      15.06928643      15.06652497      15.06512928      15.06488887      15.06566084      15.06701848      15.06910274      15.07226279      15.07692629      15.08337803      15.09069162      15.09793839      15.10548660
        15.11347055      15.12174524      15.13024222      15.13917306      15.14840688      15.15697264      15.16434473      15.17036995      15.17524910      15.17943826      15.18321238      15.18667919      15.18945318      15.19130872      15.19193352      15.19140838      15.19019229      15.18849189      15.18630386      15.18337786
        15.17972427      15.17593689      15.17244338      15.16937346      15.16722100      15.16694770      15.16905632      15.17400798      15.18195026      15.19327402      15.20720469      15.22295851      15.23932447      15.25590278      15.27335641      15.29269145      15.31313147      15.33355898      15.35418352      15.37582816
        15.39884252      15.42347154      15.45077909      15.47946023      15.50572549      15.52716119      15.54310919      15.55354677      15.55789173      15.55692981      15.55077317      15.54055731      15.52744164      15.51214703      15.49700143      15.48404776      15.47430831      15.46657996      15.46095606      15.45790925
        15.24720133      15.24516115      15.24174095      15.23741949      15.23256385      15.22713838      15.22105934      15.21463948      15.20788920      15.20113453      15.19465776      15.18823974      15.18179325      15.17523663      15.16861928      15.16192004      15.15506945      15.14808057      15.14074642      15.13329286
        15.12603265      15.11867828      15.11139395      15.10435445      15.09762058      15.09140999      15.08590321      15.08171759      15.07918279      15.07790757      15.07769613      15.07825526      15.07969359      15.08250762      15.08718691      15.09356928      15.10092669      15.10823677      15.11537523      15.12311173
        15.13155772      15.14037599      15.14923975      15.15827950      15.16683704      15.17417945      15.18023181      15.18514797      15.18908018      15.19253094      15.19570444      15.19857876      15.20064923      15.20182806      15.20235381      15.20237459      15.20194410      15.20131082      15.20017371      15.19844398
        15.19640782      15.19471553      15.19373970      15.19321115      15.19379680      15.19638661      15.20096508      15.20773766      15.21654974      15.22773485      15.24080394      15.25554287      15.27110478      15.28765408      15.30634746      15.32783705      15.35058988      15.37269209      15.39379055      15.41407720
        15.43553217      15.45920294      15.48483684      15.51014224      15.53236619      15.55134086      15.56637857      15.57727511      15.58314386      15.58329271      15.57843853      15.57004715      15.55942379      15.54708541      15.53426007      15.52261597      15.51312698      15.50595916      15.50052497      15.49762772
        15.24523489      15.24290591      15.23957152      15.23568301      15.23148610      15.22696272      15.22206954      15.21679716      15.21107207      15.20507123      15.19910342      15.19315888      15.18712678      15.18103653      15.17486563      15.16858076      15.16229128      15.15587907      15.14922678      15.14232315
        15.13558884      15.12899201      15.12243896      15.11600704      15.10975281      15.10382582      15.09862909      15.09463968      15.09212095      15.09085135      15.09067416      15.09128944      15.09316853      15.09697361      15.10286850      15.11015621      15.11788757      15.12505231      15.13228278      15.14033884
        15.14896343      15.15755171      15.16579614      15.17386437      15.18085463      15.18651710      15.19115983      15.19495596      15.19811170      15.20104920      15.20387173      15.20632119      15.20818533      15.20945705      15.21030012      15.21091771      15.21122496      15.21121916      15.21096347      15.21074467
        15.21069954      15.21104433      15.21185121      15.21333976      15.21587333      15.22011056      15.22622592      15.23409214      15.24373723      15.25514870      15.26849375      15.28363493      15.30017997      15.31843496      15.33871866      15.36138162      15.38465377      15.40618306      15.42568752      15.44460196
        15.46496829      15.48694536      15.50968290      15.53112984      15.55044185      15.56804477      15.58257940      15.59333780      15.59928224      15.59949097      15.59526506      15.58782318      15.57863359      15.56801701      15.55680317      15.54607888      15.53688903      15.53008009      15.52508864      15.52233397
        15.24207933      15.23992178      15.23703330      15.23376997      15.23025993      15.22663591      15.22272403      15.21831483      15.21340926      15.20816201      15.20273154      15.19723071      15.19156669      15.18576054      15.17999146      15.17409758      15.16819646      15.16227344      15.15618485      15.14984037
        15.14350931      15.13747612      15.13162702      15.12596678      15.12049775      15.11540189      15.11112151      15.10769555      15.10532829      15.10425513      15.10434147      15.10574904      15.10893935      15.11398325      15.12060393      15.12802148      15.13508059      15.14157218      15.14847548      15.15602335
        15.16377380      15.17122827      15.17833033      15.18475651      15.19003558      15.19431246      15.19793572      15.20106379      15.20390770      15.20668635      15.20939926      15.21188943      15.21401945      15.21563927      15.21696033      15.21816860      15.21921064      15.22000246      15.22082433      15.22181375
        15.22304636      15.22466598      15.22650070      15.22906519      15.23266983      15.23794717      15.24487393      15.25324700      15.26347618      15.27596096      15.29088905      15.30766865      15.32579712      15.34495663      15.36580904      15.38843972      15.41097738      15.43139295      15.45036658      15.46904388
        15.48809171      15.50785623      15.52752944      15.54591889      15.56324620      15.57961397      15.59311455      15.60284151      15.60830588      15.60884712      15.60532303      15.59863223      15.59023637      15.58055731      15.57028452      15.56025661      15.55132378      15.54451213      15.53986380      15.53737455
        15.23915045      15.23743096      15.23510100      15.23248903      15.22969817      15.22679159      15.22352185      15.21972395      15.21540984      15.21071726      15.20580382      15.20068940      15.19542825      15.19004165      15.18460347      15.17909228      15.17354157      15.16803534      15.16242548      15.15660985
        15.15074922      15.14513150      15.13991963      15.13511426      15.13066056      15.12668305      15.12347702      15.12089227      15.11907569      15.11849798      15.11948674      15.12230934      15.12690660      15.13289986      15.13968530      15.14611674      15.15164385      15.15699957      15.16275711      15.16882608
        15.17503988      15.18113657      15.18687043      15.19182738      15.19596629      15.19950047      15.20267528      15.20562749      15.20843721      15.21131564      15.21420023      15.21689365      15.21929023      15.22135951      15.22325991      15.22507979      15.22671197      15.22817786      15.22964420      15.23129736
        15.23326078      15.23551923      15.23840084      15.24233989      15.24746238      15.25374754      15.26135662      15.27050149      15.28182420      15.29572413      15.31151683      15.32834813      15.34625512      15.36537847      15.38621209      15.40813078      15.42970470      15.45000179      15.46926297      15.48780284
        15.50598984      15.52368544      15.54052533      15.55632137      15.57143772      15.58584495      15.59793958      15.60656202      15.61154299      15.61245534      15.60943228      15.60322253      15.59529660      15.58624607      15.57670307      15.56741068      15.55918323      15.55278695      15.54855529      15.54644257
        15.23701917      15.23573051      15.23392831      15.23190930      15.22973401      15.22732671      15.22448463      15.22120062      15.21744649      15.21320389      15.20860695      15.20385867      15.19901159      15.19403464      15.18896126      15.18384341      15.17871204      15.17355006      15.16830413      15.16296054
        15.15761650      15.15254016      15.14803692      15.14414343      15.14080784      15.13806136      15.13584657      15.13429315      15.13346738      15.13392908      15.13614073      15.13995490      15.14497047      15.15075801      15.15639939      15.16104037      15.16502834      15.16914666      15.17357305      15.17824019
        15.18320668      15.18822878      15.19291637      15.19709434      15.20076684      15.20402420      15.20707705      15.21005805      15.21300855      15.21602627      15.21905747      15.22196793      15.22469027      15.22722931      15.22960250      15.23181231      15.23382681      15.23571255      15.23758524      15.23979645
        15.24250482      15.24588629      15.25052683      15.25642024      15.26314836      15.27074856      15.27943357      15.28970272      15.30183831      15.31572745      15.33050672      15.34608877      15.36297549      15.38141254      15.40156497      15.42263240      15.44361755      15.46384907      15.48318635      15.50179659
        15.51864880      15.53364874      15.54758934      15.56094871      15.57366706      15.58563797      15.59568542      15.60317755      15.60758419      15.60876382      15.60625033      15.60056182      15.59342370      15.58539386      15.57686047      15.56852950      15.56128513      15.55564419      15.55188040      15.55009624
        15.23580894      15.23483449      15.23345891      15.23190043      15.23011035      15.22804387      15.22558756      15.22271747      15.21941519      15.21560799      15.21135592      15.20689532      15.20237466      15.19781130      15.19311861      15.18832433      15.18356156      15.17878229      15.17393910      15.16905220
        15.16432086      15.15994462      15.15623010      15.15324451      15.15086318      15.14916874      15.14797238      15.14752933      15.14790094      15.14938424      15.15214207      15.15588683      15.16033366      15.16486618      15.16867273      15.17177232      15.17474709      15.17803725      15.18164315      15.18553354
        15.18974483      15.19410085      15.19825563      15.20203567      15.20548685      15.20861220      15.21159052      15.21450843      15.21744803      15.22053550      15.22373045      15.22690425      15.22999384      15.23299384      15.23584792      15.23856253      15.24107084      15.24355533      15.24615701      15.24926547
        15.25320403      15.25823802      15.26457853      15.27193580      15.27993714      15.28855859      15.29795702      15.30863185      15.32081925      15.33382592      15.34714664      15.36140354      15.37709766      15.39473994      15.41408930      15.43414953      15.45399579      15.47318594      15.49216180      15.51004385
        15.52505719      15.53726973      15.54841633      15.55916642      15.56913256      15.57807051      15.58552900      15.59148380      15.59475882      15.59540229      15.59347575      15.58900701      15.58325558      15.57654539      15.56980000      15.56341736      15.55769803      15.55303883      15.54987145      15.54840868
        15.23530437      15.23458727      15.23352911      15.23225055      15.23071355      15.22886506      15.22666953      15.22413447      15.22121080      15.21782948      15.21402498      15.20998123      15.20580715      15.20157066      15.19730220      15.19294771      15.18859872      15.18427824      15.17998416      15.17571875
        15.17160149      15.16787072      15.16480477      15.16260577      15.16114609      15.16024302      15.15988339      15.16015615      15.16119818      15.16306778      15.16566757      15.16889683      15.17242024      15.17554061      15.17805090      15.18036857      15.18291246      15.18569596      15.18875259      15.19211811
        15.19587497      15.19980381      15.20357582      15.20703880      15.21016658      15.21296375      15.21569557      15.21847580      15.22140585      15.22462928      15.22803738      15.23153142      15.23508777      15.23865773      15.24221025      15.24554343      15.24883390      15.25241491      15.25630085      15.26072344
        15.26612948      15.27257144      15.27988187      15.28769064      15.29616488      15.30509924      15.31474642      15.32540521      15.33692865      15.34879030      15.36092894      15.37413666      15.38894325      15.40556996      15.42337670      15.44131631      15.45910424      15.47710812      15.49517275      15.51153300
        15.52443593      15.53414102      15.54256713      15.55035652      15.55711102      15.56279417      15.56740890      15.57128394      15.57321061      15.57326109      15.57202995      15.56890766      15.56484178      15.56034231      15.55613426      15.55205694      15.54814752      15.54480761      15.54258778      15.54157462
        15.23530899      15.23474863      15.23387742      15.23275837      15.23139454      15.22977047      15.22779327      15.22548130      15.22286792      15.21990038      15.21655141      15.21297220      15.20927581      15.20548946      15.20174332      15.19806925      15.19449465      15.19094123      15.18739272      15.18380769
        15.18025280      15.17699997      15.17438744      15.17260546      15.17162008      15.17111280      15.17108382      15.17162045      15.17298326      15.17495846      15.17738260      15.17997654      15.18243222      15.18447175      15.18625909      15.18816684      15.19042480      15.19291417      15.19563018      15.19871969
        15.20220703      15.20569982      15.20888683      15.21173034      15.21431307      15.21677291      15.21934566      15.22208347      15.22513608      15.22860615      15.23228102      15.23614442      15.24025330      15.24457121      15.24889076      15.25313260      15.25776927      15.26287354      15.26819476      15.27383685
        15.28032039      15.28746427      15.29492207      15.30261107      15.31095112      15.31979514      15.32918382      15.33905518      15.34942129      15.36037526      15.37159067      15.38377737      15.39740518      15.41231415      15.42792686      15.44369376      15.45945689      15.47554281      15.49174877      15.50612209
        15.51720310      15.52491961      15.53082160      15.53577376      15.54002042      15.54346579      15.54597570      15.54798461      15.54906706      15.54916237      15.54843914      15.54630755      15.54345315      15.54084428      15.53857217      15.53641357      15.53441954      15.53285970      15.53192862      15.53159856
        15.23560844      15.23514422      15.23440085      15.23342184      15.23220603      15.23076448      15.22900197      15.22690987      15.22458051      15.22197433      15.21904676      15.21595114      15.21283983      15.20969942      15.20666381      15.20378542      15.20109900      15.19848944      15.19579232      15.19289779
        15.18992956      15.18710976      15.18471143      15.18286204      15.18166830      15.18113984      15.18125191      15.18214905      15.18373589      15.18567449      15.18773211      15.18957602      15.19108895      15.19245293      15.19386371      15.19552757      15.19751822      15.19979689      15.20239161      15.20525448
        15.20824522      15.21100440      15.21345150      15.21572920      15.21795283      15.22023629      15.22275005      15.22564803      15.22901174      15.23278369      15.23675224      15.24108308      15.24595014      15.25124323      15.25684961      15.26268929      15.26876590      15.27493715      15.28128227      15.28782083
        15.29462959      15.30163391      15.30890139      15.31629583      15.32398353      15.33219992      15.34076565      15.34959348      15.35906065      15.36908804      15.37927261      15.39014215      15.40210826      15.41514043      15.42878748      15.44261608      15.45647694      15.47042269      15.48430795      15.49642620
        15.50560209      15.51176753      15.51582741      15.51906247      15.52185608      15.52411452      15.52574657      15.52684458      15.52734488      15.52719077      15.52657280      15.52528681      15.52360244      15.52238475      15.52155772      15.52105433      15.52075602      15.52069574      15.52044627      15.52040033
        15.23609036      15.23571899      15.23509241      15.23424746      15.23316975      15.23189540      15.23040036      15.22859993      15.22653203      15.22422263      15.22172046      15.21911232      15.21651721      15.21405837      15.21172422      15.20953282      15.20748959      15.20553070      15.20349067      15.20128993
        15.19903668      15.19676146      15.19450451      15.19251984      15.19104636      15.19042455      15.19075774      15.19192188      15.19346325      15.19511154      15.19667057      15.19795127      15.19897194      15.19998911      15.20115938      15.20249858      15.20410453      15.20609068      15.20828074      15.21060883
        15.21292644      15.21510161      15.21715508      15.21917923      15.22126450      15.22356186      15.22627380      15.22952321      15.23326332      15.23733247      15.24178916      15.24693814      15.25289644      15.25942705      15.26635110      15.27344587      15.28040265      15.28755721      15.29485792      15.30176428
        15.30829828      15.31483013      15.32161542      15.32831412      15.33526581      15.34267614      15.35027796      15.35810964      15.36650707      15.37544100      15.38436717      15.39349138      15.40343831      15.41453173      15.42655031      15.43889414      15.45112495      15.46304697      15.47451966      15.48466728
        15.49210145      15.49672620      15.49949081      15.50186656      15.50379536      15.50551255      15.50670164      15.50738787      15.50763347      15.50740589      15.50717239      15.50692410      15.50668570      15.50684466      15.50729896      15.50769773      15.50807694      15.50825360      15.50810387      15.50786469
        15.23662440      15.23634989      15.23585916      15.23517592      15.23427938      15.23320182      15.23191950      15.23043029      15.22874740      15.22680907      15.22464014      15.22241362      15.22022015      15.21819075      15.21633144      15.21463399      15.21305272      15.21154862      15.21002646      15.20839414
        15.20667905      15.20486228      15.20300687      15.20130818      15.20003168      15.19957384      15.20010307      15.20119462      15.20235193      15.20340907      15.20438367      15.20525658      15.20608339      15.20692233      15.20781208      15.20880131      15.21007849      15.21153138      15.21304806      15.21478062
        15.21664207      15.21850815      15.22040723      15.22238247      15.22452726      15.22700607      15.23006496      15.23376466      15.23791790      15.24247077      15.24778330      15.25402074      15.26109618      15.26867200      15.27663296      15.28483388      15.29305630      15.30117785      15.30855916      15.31497352
        15.32086542      15.32656592      15.33249309      15.33854881      15.34483346      15.35131111      15.35805411      15.36486855      15.37198956      15.37947964      15.38672932      15.39395070      15.40193063      15.41112696      15.42145003      15.43240168      15.44308924      15.45319208      15.46248584      15.47063334
        15.47659965      15.48042753      15.48271479      15.48425122      15.48546321      15.48651918      15.48725568      15.48786607      15.48862047      15.48915755      15.48988019      15.49087512      15.49191351      15.49282632      15.49376006      15.49442354      15.49486640      15.49498164      15.49491238      15.49467068
        15.23710935      15.23692277      15.23657634      15.23605797      15.23533669      15.23446389      15.23343284      15.23222860      15.23087338      15.22931907      15.22753317      15.22563501      15.22375870      15.22200769      15.22048161      15.21915027      15.21799303      15.21686661      15.21566723      15.21440040
        15.21301065      15.21150453      15.21009078      15.20889677      15.20811853      15.20797946      15.20855809      15.20934566      15.20994006      15.21043631      15.21092449      15.21148519      15.21213435      15.21278339      15.21344408      15.21417192      15.21504372      15.21597810      15.21711665      15.21850749