# File generated by Flopy version 3.6.0 on 09/27/2024 at 13:11:42.
BEGIN griddata
  strt
    INTERNAL  FACTOR  1.0
        15.00000000      15.00000000      15.00000000      15.00000000      15.00000000      15.00000000      15.00000000      15.00000000      15.00000000      15.00000000      15.00000000      15.00000000      15.00000000      15.00000000      15.00000000      15.00000000      15.00000000      15.00000000      15.00000000      15.00000000
        15.00000000      15.00000000      15.00000000      15.00000000      15.00000000      15.00000000      15.00000000      15.00000000      15.00000000      15.00000000      15.00000000      15.00000000      15.00000000      15.00000000      15.00000000      15.00000000      15.00000000      15.00000000      15.00000000      15.00000000
        15.00000000      15.00000000      15.00000000      15.00000000      15.00000000      15.00000000      15.00000000      15.00000000      15.00000000      15.00000000      15.00000000      15.00000000      15.00000000      15.00000000      15.00000000      15.00000000      15.00000000      15.00000000      15.00000000      15.00000000
        15.00000000      15.00000000      15.00000000      15.00000000      15.00000000      15.00000000      15.00000000      15.00000000      15.00000000      15.00000000      15.00000000      15.00000000      15.00000000      15.00000000      15.00000000      15.00000000      15.00000000      15.00000000      15.00000000      15.00000000
        15.00000000      15.00000000      15.00000000      15.00000000      15.00000000      15.00000000      15.00000000      15.00000000      15.00000000      15.00000000      15.00000000      15.00000000      15.00000000      15.00000000      15.00000000      15.00000000      15.00000000      15.00000000      15.00000000      15.00000000
        15.11291869      15.11217897      15.11164788      15.11066219      15.10719728      15.10131676      15.09225959      15.08372192      15.07526270      15.06579274      15.05781856      15.04981906      15.04318429      15.03891203      15.03542432      15.03043693      15.02443740      15.01850354      15.01388369      15.01069388
        15.00816069      15.00635833      15.00525438      15.00468678      15.00432177      15.00410411      15.00400878      15.00400182      15.00407914      15.00417385      15.00420987      15.00423225      15.00418384      15.00410296      15.00408128      15.00411638      15.00413502      15.00428257      15.00447199      15.00476657
        15.00522604      15.00574543      15.00632131      15.00708796      15.00793673      15.00865390      15.00936530      15.01023353      15.01120255      15.01202514      15.01258173      15.01314873      15.01385676      15.01464506      15.01536606      15.01601592      15.01665843      15.01772690      15.01925472      15.02081056
        15.02267823      15.02529984      15.02799670      15.03013542      15.03089098      15.03053269      15.02977912      15.02858206      15.02647644      15.02382436      15.02169675      15.01980776      15.01826808      15.01753949      15.01705472      15.01678602      15.01716867      15.01791467      15.01880369      15.01972069
        15.02012846      15.01938199      15.01817658      15.01637969      15.01482511      15.01388270      15.01352069      15.01344953      15.01317556      15.01304548      15.01288572      15.01291448      15.01329411      15.01371167      15.01438620      15.01525309      15.01581374      15.01607401      15.01621227      15.01602758
        15.21566476      15.21425305      15.21138559      15.20923970      15.20617867      15.19843558      15.18315650      15.16624949      15.15052219      15.13353499      15.11719318      15.10274699      15.08991501      15.08013005      15.07245702      15.06314694      15.05190691      15.04058826      15.03056037      15.02328417
        15.01787439      15.01404404      15.01160059      15.01022448      15.00941645      15.00887879      15.00862337      15.00857510      15.00868073      15.00886741      15.00898176      15.00906109      15.00903073      15.00885515      15.00868655      15.00875702      15.00889174      15.00914830      15.00959930      15.01016199
        15.01091143      15.01194994      15.01307450      15.01433164      15.01583736      15.01722831      15.01862907      15.02018703      15.02184478      15.02314222      15.02400744      15.02499764      15.02628658      15.02767220      15.02906938      15.03033692      15.03167311      15.03363438      15.03658842      15.04002159
        15.04374153      15.04804059      15.05247655      15.05623616      15.05848750      15.05844467      15.05732765      15.05575282      15.05273708      15.04889285      15.04518904      15.04173361      15.03880765      15.03705963      15.03613835      15.03573913      15.03618809      15.03692127      15.03791043      15.03919664
        15.03989656      15.03925106      15.03758379      15.03503886      15.03211118      15.02976092      15.02834019      15.02790387      15.02753979      15.02711977      15.02672726      15.02646917      15.02690442      15.02755380      15.02861174      15.03010799      15.03131178      15.03208564      15.03236868      15.03227165
        15.30753968      15.30642628      15.30221718      15.29913745      15.29574980      15.28749448      15.27017463      15.24726807      15.22523384      15.20313409      15.18057981      15.16046326      15.14261533      15.12668237      15.11390607      15.10034577      15.08366012      15.06673656      15.05135851      15.03901721
        15.02995855      15.02352728      15.01948833      15.01701699      15.01558776      15.01465911      15.01407524      15.01392376      15.01407090      15.01431060      15.01452035      15.01461072      15.01458546      15.01436470      15.01411010      15.01412378      15.01440429      15.01480007      15.01544080      15.01620267
        15.01711823      15.01842060      15.01992042      15.02157621      15.02349024      15.02556402      15.02766687      15.02974043      15.03170130      15.03325801      15.03447135      15.03576868      15.03739527      15.03932075      15.04134870      15.04325134      15.04535870      15.04834308      15.05248507      15.05757803
        15.06282538      15.06842937      15.07440438      15.07965255      15.08350801      15.08470329      15.08402148      15.08244216      15.07955028      15.07516939      15.07014397      15.06551214      15.06117090      15.05808637      15.05650563      15.05598386      15.05631243      15.05669617      15.05732030      15.05845891
        15.05924162      15.05891507      15.05721107      15.05450346      15.05072561      15.04712806      15.04462389      15.04340187      15.04286417      15.04227587      15.04165699      15.04114586      15.04136887      15.04207087      15.04329999      15.04492968      15.04656538      15.04771673      15.04814512      15.04833083
        15.38920496      15.38924249      15.38651726      15.38393261      15.37971814      15.36978541      15.35060445      15.32445904      15.29792023      15.27283012      15.24795980      15.22406186      15.20198328      15.18150456      15.16292658      15.14493361      15.12243731      15.09862152      15.07755222      15.05937104
        15.04539481      15.03561892      15.02941453      15.02557144      15.02326162      15.02185205      15.02090069      15.02046885      15.02047861      15.02074450      15.02108384      15.02114109      15.02103297      15.02081425      15.02056292      15.02047885      15.02077534      15.02130831      15.02197062      15.02280249
        15.02384766      15.02526279      15.02702437      15.02891339      15.03112062      15.03374158      15.03640553      15.03871747      15.04076959      15.04252932      15.04404589      15.04562647      15.04758392      15.05001998      15.05265481      15.05521498      15.05826576      15.06230908      15.06729955      15.07333564
        15.08002727      15.08718545      15.09457016      15.10144164      15.10683924      15.10981455      15.11028867      15.10945729      15.10718348      15.10281976      15.09667785      15.09064745      15.08498349      15.08059428      15.07796424      15.07690776      15.07676802      15.07670883      15.07682301      15.07740180
        15.07810843      15.07794766      15.07655397      15.07383762      15.06991354      15.06556439      15.06228821      15.06005910      15.05896780      15.05847040      15.05806954      15.05767444      15.05764991      15.05808317      15.05884796      15.06011420      15.06178768      15.06314237      15.06384999      15.06428029
        15.46321437      15.46336286      15.46322498      15.46130579      15.45645886      15.44494995      15.42492904      15.39706937      15.36811618      15.34108119      15.31543247      15.28989167      15.26457722      15.24180216      15.21916282      15.19668881      15.16916409      15.13817861      15.11018536      15.08579065
        15.06546755      15.05098878      15.04192306      15.03621803      15.03269819      15.03062456      15.02933448      15.02858073      15.02832956      15.02845554      15.02884064      15.02886118      15.02855711      15.02828718      15.02806563      15.02793030      15.02814904      15.02866759      15.02926921      15.03000915
        15.03108150      15.03259739      15.03451097      15.03657599      15.03898808      15.04186911      15.04471451      15.04709237      15.04924939      15.05115197      15.05296306      15.05489381      15.05727271      15.06021524      15.06346219      15.06672794      15.07076316      15.07571380      15.08142330      15.08817011
        15.09602201      15.10457006      15.11347452      15.12201574      15.12927921      15.13391831      15.13609182      15.13669601      15.13557516      15.13197940      15.12546946      15.11797196      15.11088253      15.10499741      15.10089622      15.09865010      15.09778271      15.09723269      15.09686563      15.09681346
        15.09707412      15.09711313      15.09629194      15.09398152      15.09017849      15.08573333      15.08157093      15.07836523      15.07646257      15.07595541      15.07598384      15.07592924      15.07582009      15.07583179      15.07578026      15.07629917      15.07757108      15.07905275      15.08012392      15.08049733
        15.52758725      15.52790875      15.52871841      15.52707343      15.52162517      15.50985022      15.49112771      15.46456085      15.43492269      15.40578369      15.37874261      15.35310890      15.32636355      15.30192551      15.27835927      15.25268931      15.22173580      15.18551667      15.15051341      15.11942029
        15.09217424      15.07111279      15.05786476      15.04968623      15.04451987      15.04146662      15.03976416      15.03875287      15.03825814      15.03810950      15.03835565      15.03823583      15.03760794      15.03712371      15.03680165      15.03658515      15.03676992      15.03723432      15.03779167      15.03839551
        15.03935935      15.04080979      15.04272723      15.04495147      15.04744862      15.05028609      15.05290565      15.05528784      15.05742832      15.05942507      15.06161455      15.06397264      15.06674896      15.07007733      15.07379363      15.07785941      15.08285885      15.08888028      15.09545648      15.10279437
        15.11121296      15.12079613      15.13112179      15.14160448      15.15095973      15.15798011      15.16248552      15.16510614      15.16585799      15.16352015      15.15746326      15.14829798      15.13949699      15.13214853      15.12628546      15.12217945      15.12026437      15.11930345      15.11852054      15.11799479
        15.11755629      15.11740888      15.11719583      15.11590007      15.11253832      15.10806047      15.10302013      15.09863837      15.09563083      15.09470539      15.09494973      15.09530030      15.09531832      15.09503551      15.09454083      15.09414574      15.09454504      15.09586877      15.09712005      15.09761028
        15.58290695      15.58347083      15.58403384      15.58208935      15.57667073      15.56594729      15.54802223      15.52368174      15.49535498      15.46537338      15.43620608      15.41007808      15.38433227      15.35858454      15.33524481      15.30946579      15.27718680      15.23838067      15.19832953      15.16067887
        15.12654629      15.09800182      15.07861292      15.06682698      15.05950231      15.05502481      15.05249205      15.05113253      15.05049659      15.05020194      15.05010195      15.04964071      15.04862005      15.04758837      15.04704369      15.04666245      15.04672695      15.04710783      15.04761631      15.04817091
        15.04892668      15.05007020      15.05178299      15.05396435      15.05649586      15.05909700      15.06141396      15.06364767      15.06566115      15.06779941      15.07015899      15.07281737      15.07586694      15.07949235      15.08352036      15.08833074      15.09435142      15.10132380      15.10864693      15.11646598
        15.12529981      15.13558978      15.14705896      15.15928556      15.17087401      15.18130746      15.18889520      15.19423380      15.19771436      15.19729148      15.19244139      15.18263662      15.17100207      15.16159088      15.15393853      15.14790655      15.14439900      15.14288840      15.14170377      15.14072032
        15.13966889      15.13922652      15.13938832      15.13897660      15.13685662      15.13243823      15.12684512      15.12116616      15.11676474      15.11474504      15.11479638      15.11543130      15.11571394      15.11540728      15.11480275      15.11376312      15.11318224      15.11369977      15.11494933      15.11565094
        15.63230757      15.63199270      15.63151177      15.62899110      15.62401942      15.61437861      15.59720147      15.57373497      15.54681484      15.51816989      15.48866474      15.46090162      15.43616968      15.41050128      15.38648879      15.36194181      15.33123131      15.29243367      15.25026642      15.20853386
        15.16848198      15.13258662      15.10555575      15.08863915      15.07805039      15.07169592      15.06773532      15.06558924      15.06479927      15.06450026      15.06400089      15.06320825      15.06182233      15.06017608      15.05924836      15.05858948      15.05824294      15.05829013      15.05859278      15.05902657
        15.05950466      15.06027757      15.06154595      15.06340689      15.06582899      15.06818035      15.07024389      15.07216309      15.07411483      15.07625815      15.07859048      15.08135522      15.08463526      15.08851066      15.09283147      15.09822712      15.10493725      15.11243887      15.12016213      15.12837158
        15.13768616      15.14861160      15.16114567      15.17490678      15.18905237      15.20256484      15.21370179      15.22250552      15.22962042      15.23257068      15.23000628      15.22147091      15.20749863      15.19442423      15.18439633      15.17618163      15.17057309      15.16764164      15.16595963      15.16417403
        15.16279599      15.16250962      15.16289360      15.16275463      15.16129792      15.15768277      15.15219787      15.14593536      15.14055369      15.13704872      15.13640437      15.13693184      15.13730142      15.13691766      15.13589653      15.13440481      15.13322201      15.13260953      15.13336393      15.13416623
        15.67555652      15.67450971      15.67294827      15.67003803      15.66534692      15.65604933      15.64039716      15.61760098      15.59134987      15.56391169      15.53586145      15.50744331      15.48180246      15.45671589      15.43193315      15.40778257      15.37975107      15.34384573      15.30196308      15.25879920
        15.21568720      15.17388576      15.13928550      15.11570597      15.10056172      15.09138082      15.08568526      15.08219318      15.08077123      15.08034630      15.07973953      15.07889159      15.07751837      15.07558978      15.07402493      15.07309870      15.07215866      15.07147817      15.07113962      15.07117525
        15.07128684      15.07151228      15.07226180      15.07358961      15.07564564      15.07765290      15.07932535      15.08097242      15.08286442      15.08489356      15.08725463      15.09000185      15.09345040      15.09755662      15.10216342      15.10789629      15.11476939      15.12226895      15.13009430      15.13869304
        15.14855116      15.16010332      15.17374327      15.18912326      15.20565365      15.22190757      15.23651555      15.24949275      15.26094773      15.26834525      15.26915517      15.26319403      15.24950736      15.23234629      15.21838793      15.20753085      15.19944910      15.19433166      15.19145013      15.18864234
        15.18697651      15.18670644      15.18690037      15.18669802      15.18517523      15.18240233      15.17775022      15.17186003      15.16592426      15.16151488      15.15979471      15.16000939      15.15993904      15.15915885      15.15754181      15.15555826      15.15371180      15.15213142      15.15173368      15.15210396
        15.71428381      15.71286766      15.71109451      15.70810504      15.70289046      15.69412402      15.68037275      15.65954520      15.63419229      15.60700718      15.58011159      15.55267186      15.52512448      15.49926515      15.47370783      15.44888301      15.42246729      15.39077647      15.35204434      15.30969031
        15.26573126      15.22038031      15.17926410      15.14827357      15.12746148      15.11421529      15.10628220      15.10106547      15.09848328      15.09762109      15.09714960      15.09646892      15.09538625      15.09342391      15.09133455      15.09008516      15.08869914      15.08704473      15.08569547      15.08494447
        15.08436479      15.08383427      15.08394234      15.08463816      15.08594519      15.08733466      15.08856426      15.09008442      15.09185956      15.09378291      15.09606952      15.09882508      15.10237559      15.10672016      15.11166016      15.11746208      15.12408335      15.13127001      15.13923074      15.14817795
        15.15844229      15.17051700      15.18518194      15.20244518      15.22128699      15.24023651      15.25827295      15.27562734      15.29187323      15.30434041      15.30955414      15.30722079      15.29569887      15.27626086      15.25743456      15.24298816      15.23188166      15.22387851      15.21904768      15.21534345
        15.21280230      15.21184778      15.21142384      15.21086778      15.20954669      15.20706301      15.20337316      15.19833829      15.19221157      15.18717172      15.18446157      15.18391194      15.18338304      15.18214502      15.18028788      15.17803670      15.17528153      15.17262726      15.17081451      15.16993009
        15.74836885      15.74686553      15.74516567      15.74217983      15.73664935      15.72841854      15.71639532      15.69923212      15.67692161      15.65039244      15.62307096      15.59695348      15.56897693      15.54083360      15.51339775      15.48679231      15.46010892      15.43126097      15.39667213      15.35730107
        15.31496078      15.26862970      15.22316473      15.18542185      15.15806935      15.13988021      15.12875985      15.12172380      15.11759931      15.11604585      15.11554676      15.11503601      15.11414287      15.11248702      15.11026497      15.10849625      15.10691967      15.10468538      15.10230889      15.10046579
        15.09888735      15.09752947      15.09647746      15.09624052      15.09652674      15.09711420      15.09806087      15.09938062      15.10097151      15.10279002      15.10486733      15.10764218      15.11138906      15.11602675      15.12129072      15.12703640      15.13330757      15.14018925      15.14820377      15.15746221
        15.16806740      15.18045688      15.19609675      15.21503635      15.23610075      15.25787983      15.27954269      15.30142618      15.32262597      15.34050016      15.35220458      15.35379836      15.34491433      15.32542631      15.30262703      15.28350374      15.26886856      15.25726346      15.24945762      15.24462258
        15.24082459      15.23849080      15.23712643      15.23576584      15.23446174      15.23232647      15.22947782      15.22504350      15.21936254      15.21356496      15.20984727      15.20821786      15.20730346      15.20592985      15.20399276      15.20148325      15.19815942      15.19454347      15.19154336      15.18985461
        15.77647720      15.77560693      15.77399680      15.77133198      15.76643013      15.75895022      15.74821080      15.73416061      15.71653680      15.69342174      15.66599255      15.63971218      15.61293360      15.58362980      15.55367791      15.52387152      15.49508427      15.46620450      15.43465736      15.39833648
        15.35877487      15.31403605      15.26731082      15.22514280      15.19170196      15.16789080      15.15276342      15.14326527      15.13740419      15.13476364      15.13391733      15.13353589      15.13289715      15.13182613      15.13000416      15.12795797      15.12610035      15.12368713      15.12069241      15.11768542
        15.11512811      15.11271732      15.11024823      15.10855364      15.10764036      15.10744599      15.10802016      15.10892056      15.11018148      15.11189716      15.11387020      15.11670452      15.12075694      15.12562071      15.13095243      15.13650748      15.14245082      15.14915874      15.15720913      15.16665903
        15.17746537      15.19008225      15.20626376      15.22621869      15.24921484      15.27420435      15.29957397      15.32585290      15.35194932      15.37606694      15.39540111      15.40221082      15.39591574      15.37759195      15.35231840      15.32795250      15.30915099      15.29418479      15.28278023      15.27556567
        15.27035178      15.26596254      15.26306063      15.26082921      15.25881708      15.25680617      15.25440160      15.25042156      15.24547102      15.23936254      15.23446421      15.23164280      15.23020822      15.22880028      15.22674006      15.22393616      15.22061129      15.21679619      15.21310810      15.21125984
        15.79961869      15.79960120      15.79859705      15.79654301      15.79257959      15.78638532      15.77725725      15.76513027      15.75107140      15.73322970      15.70909484      15.68307369      15.65772886      15.62878363      15.59723536      15.56427512      15.53187559      15.50042504      15.46903130      15.43454514
        15.39698640      15.35449143      15.30831972      15.26439989      15.22649574      15.19744605      15.17802067      15.16512742      15.15714245      15.15309031      15.15168802      15.15141623      15.15116132      15.15073635      15.14961913      15.14766413      15.14539547      15.14271935      15.13956774      15.13584878
        15.13247051      15.12911208      15.12530838      15.12191330      15.11950073      15.11842526      15.11836675      15.11877386      15.11966061      15.12121439      15.12334345      15.12638322      15.13056119      15.13540062      15.14052723      15.14576802      15.15150494      15.15807745      15.16601404      15.17557188
        15.18644865      15.19925962      15.21560139      15.23614539      15.26084902      15.28895609      15.31845260      15.34907409      15.37994082      15.41062329      15.43734356      15.45112754      15.44795842      15.43158703      15.40512954      15.37626008      15.35223046      15.33360361      15.31870628      15.30813323
        15.30088540      15.29453294      15.28973806      15.28619943      15.28279805      15.27997210      15.27746061      15.27403795      15.26954866      15.26371382      15.25792231      15.25397861      15.25166515      15.24984452      15.24788858      15.24524805      15.24207380      15.23861440      15.23522505      15.23325999
        15.81900733      15.81947828      15.81942905      15.81805720      15.81502813      15.81007039      15.80284989      15.79280344      15.78114985      15.76807411      15.74997860      15.72706662      15.70317801      15.67663502      15.64502957      15.60954909      15.57317532      15.53809364      15.50388197      15.46909493
        15.43167215      15.39069708      15.34544192      15.30099819      15.26077271      15.22751072      15.20377950      15.18735285      15.17667232      15.17078570      15.16848775      15.16810136      15.16826683      15.16839871      15.16789099      15.16611927      15.16377174      15.16096275      15.15773382      15.15401127
        15.15004718      15.14603704      15.14133832      15.13638354      15.13227521      15.12992036      15.12896218      15.12888089      15.12952172      15.13090916      15.13322418      15.13642063      15.14052241      15.14529023      15.15016062      15.15505396      15.16040351      15.16675770      15.17446957      15.18400262
        15.19509141      15.20820339      15.22481299      15.24595070      15.27197744      15.30257650      15.33587976      15.37088300      15.40687115      15.44346708      15.47744384      15.49868902      15.50022466      15.48618792      15.46040022      15.42887875      15.39885959      15.37487124      15.35582459      15.34192353
        15.33204263      15.32406009      15.31744116      15.31233764      15.30760509      15.30316965      15.29962427      15.29650184      15.29194567      15.28627460      15.28015264      15.27532058      15.27199688      15.26940448      15.26755104      15.26551607      15.26287536      15.25996446      15.25737111      15.25559111
        15.83529961      15.83607992      15.83668715      15.83614760      15.83388513      15.82991867      15.82429418      15.81650029      15.80713737      15.79753274      15.78502665      15.76778487      15.74683744      15.72339616      15.69444275      15.65862493      15.61826742      15.57961646      15.54184374      15.50481240
        15.46591757      15.42434517      15.37993633      15.33492226      15.29337384      15.25752811      15.22985796      15.20991995      15.19648620      15.18839947      15.18455467      15.18347369      15.18374159      15.18428342      15.18422733      15.18287911      15.18066877      15.17806749      15.17500778      15.17165708
        15.16756785      15.16299250      15.15782617      15.15182293      15.14621537      15.14238808      15.14036818      15.13965956      15.14001711      15.14121905      15.14342975      15.14657865      15.15059714      15.15515835      15.15973674      15.16426038      15.16924016      15.17528861      15.18284543      15.19245437
        15.20379188      15.21734184      15.23446460      15.25608648      15.28306328      15.31552544      15.35171323      15.39073957      15.43177954      15.47402942      15.51397634      15.54291509      15.55219396      15.54194245      15.51754345      15.48380320      15.44753879      15.41725602      15.39335968      15.37595955
        15.36319801      15.35363434      15.34558629      15.33903992      15.33313093      15.32708356      15.32167603      15.31741244      15.31255635      15.30665977      15.30039926      15.29512617      15.29118643      15.28805234      15.28583394      15.28436964      15.28281372      15.28067125      15.27858057      15.27727776
        15.84880156      15.84965656      15.85045577      15.85045463      15.84900024      15.84604839      15.84156421      15.83567477      15.82839317      15.82096174      15.81204562      15.79985071      15.78369187      15.76406939      15.73955944      15.70724889      15.66577463      15.62255891      15.58192787      15.54240019
        15.50198297      15.45807872      15.41305939      15.36799152      15.32532911      15.28767430      15.25656544      15.23297342      15.21677945      15.20655152      15.20067354      15.19832976      15.19812343      15.19859325      15.19886771      15.19813124      15.19632014      15.19406117      15.19146604      15.18836131
        15.18444414      15.17957809      15.17430553      15.16798744      15.16147676      15.15617870      15.15295008      15.15146801      15.15129503      15.15208418      15.15393691      15.15681917      15.16061218      15.16483317      15.16906030      15.17334868      15.17823261      15.18413459      15.19178170      15.20141234
        15.21283141      15.22658414      15.24419477      15.26675798      15.29440649      15.32770340      15.36627910      15.40898861      15.45454513      15.50171066      15.54753435      15.58449130      15.60193124      15.59775387      15.57580257      15.54101217      15.49971826      15.46175662      15.43235083      15.41031605
        15.39446208      15.38299880      15.37385161      15.36603219      15.35884822      15.35142952      15.34408194      15.33741688      15.33157497      15.32548166      15.31880386      15.31311746      15.30907480      15.30595404      15.30344507      15.30222470      15.30145190      15.30027104      15.29878387      15.29788711
        15.86003638      15.86071598      15.86140859      15.86149293      15.86066989      15.85862779      15.85511968      15.85048687      15.84484454      15.83890501      15.83227917      15.82356023      15.81179430      15.79626244      15.77681423      15.75020662      15.71264458      15.66715721      15.62319251      15.58120619
        15.53911129      15.49379335      15.44682221      15.40085276      15.35744465      15.31873495      15.28481658      15.25713170      15.23751254      15.22526800      15.21757171      15.21359173      15.21233345      15.21220807      15.21237377      15.21203767      15.21089697      15.20917104      15.20693104      15.20387046