# File generated by Flopy version 3.6.0 on 12/12/2024 at 09:27:17.
BEGIN options
END options

BEGIN griddata
  icelltype
    CONSTANT  0
  k
    INTERNAL  FACTOR  1.0
    5.95286220E-05  5.39225800E-05  4.73429467E-05  3.88865169E-05  3.30930518E-05  2.84309475E-05  3.00270878E-05  3.67498359E-05  4.39742611E-05  6.02092442E-05  7.69983614E-05  1.08571589E-04  1.50820788E-04  1.90058076E-04  1.89886248E-04  1.93626937E-04  2.08893592E-04  2.78212246E-04  4.07277080E-04  5.42789293E-04
    7.93309095E-04       0.00132875       0.00218943       0.00291689       0.00359203       0.00410726       0.00475892       0.00543738       0.00547287       0.00523703       0.00465421       0.00452422       0.00494882       0.00538354       0.00522321       0.00479476       0.00442020       0.00414111       0.00442282       0.00506304
         0.00559777       0.00552191       0.00572088       0.00548746       0.00451745       0.00447504       0.00465328       0.00419945       0.00320763       0.00255204       0.00208700       0.00157869       0.00111522  7.19121975E-04  4.92379958E-04  4.04083508E-04  3.71262825E-04  3.22189052E-04  2.39361688E-04  1.79862606E-04
    1.51029000E-04  1.13206102E-04  8.53379243E-05  7.03435832E-05  7.01641500E-05  8.18348863E-05  9.76337234E-05  1.04103931E-04  1.08770446E-04  1.30222506E-04  1.53423239E-04  1.78496154E-04  2.39128339E-04  2.86999644E-04  3.40602919E-04  4.23392651E-04  4.09069619E-04  3.83505191E-04  3.74092522E-04  3.38216832E-04
    3.31672840E-04  3.72865137E-04  3.82149676E-04  4.28369095E-04  4.98507191E-04  6.01415396E-04  6.37019623E-04  6.33616386E-04  7.21080205E-04  7.84980144E-04  8.83390961E-04  9.65566072E-04  9.61430900E-04       0.00103049       0.00107929       0.00104494  9.53603046E-04  8.88860547E-04  7.89784724E-04  7.94605051E-04
    6.25111237E-05  5.58710833E-05  5.20062949E-05  4.19355233E-05  3.21827302E-05  2.64524027E-05  2.81242145E-05  3.49478959E-05  4.23377439E-05  5.54823414E-05  7.45704095E-05  9.62199539E-05  1.35789142E-04  1.74040403E-04  1.85498919E-04  1.75775120E-04  1.74989776E-04  2.17330448E-04  3.28240264E-04  4.60340742E-04
    6.39507640E-04       0.00102503       0.00172868       0.00239959       0.00289749       0.00345406       0.00395402       0.00460030       0.00502996       0.00469496       0.00401908       0.00390495       0.00405490       0.00456487       0.00466468       0.00419942       0.00373595       0.00362464       0.00370396       0.00439505
         0.00511593       0.00488449       0.00491070       0.00529444       0.00443934       0.00434227       0.00457781       0.00433235       0.00336106       0.00276874       0.00236416       0.00176086       0.00120675  8.07421358E-04  5.43586117E-04  4.29114252E-04  3.87046989E-04  3.40053875E-04  2.53470462E-04  1.78303654E-04
    1.45858763E-04  1.11239578E-04  9.02153655E-05  7.50479703E-05  6.90052772E-05  8.09130679E-05  9.95469534E-05  1.00662588E-04  1.00380621E-04  1.07758196E-04  1.25523551E-04  1.47834153E-04  1.87925478E-04  2.28929412E-04  2.69593772E-04  3.36446753E-04  3.42635522E-04  3.42247396E-04  3.55649762E-04  3.40310466E-04
    3.32424909E-04  3.49699485E-04  3.39049979E-04  3.35412677E-04  3.84398667E-04  4.92722768E-04  5.82894926E-04  5.77872356E-04  6.39025298E-04  7.23475695E-04  7.70324661E-04  9.11655419E-04  9.13244485E-04  9.95246544E-04       0.00110469       0.00108216  9.62429440E-04  8.55735689E-04  7.80547483E-04  7.19924375E-04
    6.70971877E-05  5.91413484E-05  5.39814180E-05  4.54315243E-05  3.46334319E-05  2.75414237E-05  2.62883825E-05  3.37355617E-05  4.14906164E-05  5.17867015E-05  7.11162768E-05  9.03005952E-05  1.15838797E-04  1.56587220E-04  1.75306190E-04  1.61645243E-04  1.53663605E-04  1.77073163E-04  2.54280416E-04  3.70575585E-04
    5.13573447E-04  8.25982829E-04       0.00132641       0.00191826       0.00235381       0.00277581       0.00330177       0.00384331       0.00414237       0.00411201       0.00349422       0.00342946       0.00357097       0.00377180       0.00386200       0.00364611       0.00301466       0.00300735       0.00304295       0.00350168
         0.00446072       0.00452375       0.00455164       0.00508704       0.00470419       0.00445429       0.00451613       0.00439394       0.00370982       0.00311823       0.00249940       0.00189445       0.00136407  8.94938709E-04  5.88357409E-04  4.62871176E-04  3.94346044E-04  3.50138477E-04  2.72047427E-04  1.80377685E-04
    1.41458796E-04  1.18543122E-04  9.38945451E-05  7.99097259E-05  7.12809449E-05  7.81981659E-05  9.50408024E-05  9.76461463E-05  9.05292554E-05  8.94898299E-05  1.03222742E-04  1.15634253E-04  1.46107016E-04  1.90532951E-04  2.26797962E-04  2.71053442E-04  2.81463634E-04  2.95469718E-04  3.20989638E-04  3.25753068E-04
    3.43631066E-04  3.31404593E-04  3.14330704E-04  2.82045211E-04  3.06387305E-04  3.89251337E-04  4.66637013E-04  5.12012253E-04  5.43348469E-04  6.25656696E-04  6.83645985E-04  7.72768227E-04  8.45228607E-04  9.05121935E-04       0.00100986       0.00109060  9.76553246E-04  8.52654907E-04  7.69987286E-04  6.97686453E-04
    7.47062493E-05  6.47571538E-05  5.60533172E-05  4.57192782E-05  3.70088794E-05  3.06037360E-05  2.76711728E-05  3.31643791E-05  4.26537906E-05  5.21767148E-05  6.44627370E-05  7.94066449E-05  9.92539174E-05  1.27391177E-04  1.52130233E-04  1.35739555E-04  1.24161391E-04  1.54296148E-04  1.98468717E-04  2.83284226E-04
    3.90959190E-04  6.34789592E-04  9.79690741E-04       0.00140796       0.00179128       0.00207959       0.00253651       0.00305055       0.00341868       0.00348829       0.00292409       0.00296592       0.00314364       0.00325713       0.00295917       0.00296531       0.00252927       0.00238210       0.00257263       0.00300565
         0.00366605       0.00423876       0.00438439       0.00482167       0.00489120       0.00451763       0.00457347       0.00468098       0.00433941       0.00369949       0.00280719       0.00208312       0.00155128       0.00104907  6.87029786E-04  4.95719617E-04  4.00326822E-04  3.35495772E-04  2.87331223E-04  2.00487603E-04
    1.50899951E-04  1.20196396E-04  9.90867740E-05  8.24484333E-05  7.50069155E-05  7.61137807E-05  8.86251013E-05  9.17304674E-05  7.87018797E-05  7.55671499E-05  8.75003495E-05  9.80398527E-05  1.21521796E-04  1.57749525E-04  1.94596588E-04  2.38039033E-04  2.60887447E-04  2.71411081E-04  2.97433587E-04  3.31401220E-04
    3.58683354E-04  3.55566967E-04  3.19573254E-04  2.82259353E-04  2.87388459E-04  3.46695965E-04  3.93555340E-04  4.55535052E-04  5.18235746E-04  5.77681895E-04  6.05084890E-04  6.55581510E-04  7.30229878E-04  7.94588478E-04  9.09650273E-04       0.00107899       0.00101436  9.11995198E-04  8.10443392E-04  6.81540241E-04
    8.09195243E-05  7.21030830E-05  5.49870840E-05  4.55966981E-05  3.75300281E-05  3.25114690E-05  3.00393330E-05  3.49416746E-05  4.37678055E-05  5.29726060E-05  6.04140520E-05  7.21322838E-05  9.05886477E-05  1.04977450E-04  1.24190503E-04  1.12301464E-04  1.00020794E-04  1.26072202E-04  1.58044361E-04  2.09589252E-04
    3.00500005E-04  4.69901235E-04  7.34190976E-04       0.00101966       0.00134121       0.00159170       0.00180326       0.00225013       0.00273881       0.00289314       0.00249837       0.00248055       0.00273037       0.00268506       0.00236826       0.00229910       0.00209321       0.00197389       0.00217726       0.00256432
         0.00307529       0.00359211       0.00383410       0.00440615       0.00452834       0.00457862       0.00473714       0.00507081       0.00488878       0.00414371       0.00307801       0.00223847       0.00165139       0.00113867  7.46867376E-04  5.20489867E-04  3.78853882E-04  3.21563139E-04  2.87613433E-04  2.28124374E-04
    1.58649996E-04  1.21256938E-04  1.00326355E-04  8.18550354E-05  7.52919581E-05  7.33874401E-05  8.17492638E-05  8.00305439E-05  6.86568797E-05  6.31635205E-05  6.94620798E-05  8.13456256E-05  9.86788164E-05  1.25764495E-04  1.60020441E-04  2.05609652E-04  2.39349484E-04  2.49339592E-04  2.67024282E-04  3.12886411E-04
    3.67791740E-04  3.68377657E-04  3.16406187E-04  2.81474588E-04  2.63833584E-04  2.93200115E-04  3.20235041E-04  3.78954703E-04  4.61157049E-04  5.15243368E-04  5.21114571E-04  5.19254562E-04  5.87058248E-04  6.48015877E-04  7.90348540E-04  9.84854577E-04       0.00101508  9.26909760E-04  7.65446655E-04  6.82805112E-04
    8.47189592E-05  7.94698711E-05  6.04560513E-05  5.02916266E-05  4.30838075E-05  3.76434300E-05  3.28997621E-05  3.63194430E-05  4.41153140E-05  5.37038765E-05  6.25225444E-05  7.32946923E-05  8.89746224E-05  1.00716154E-04  1.07512983E-04  1.01002257E-04  8.64722341E-05  1.02944408E-04  1.31317161E-04  1.61778415E-04
    2.21103092E-04  3.55979533E-04  5.38144038E-04  7.52936688E-04       0.00100604       0.00123782       0.00140336       0.00170172       0.00205155       0.00231603       0.00219177       0.00213676       0.00230369       0.00233802       0.00198152       0.00184707       0.00169564       0.00169400       0.00182031       0.00217344
         0.00259966       0.00309816       0.00352049       0.00380525       0.00400673       0.00437328       0.00525697       0.00557372       0.00544750       0.00483193       0.00346583       0.00237568       0.00174548       0.00128422  8.56524229E-04  5.28958959E-04  3.73106459E-04  3.06842920E-04  2.74424378E-04  2.26427627E-04
    1.72865006E-04  1.27177420E-04  1.01188370E-04  8.19910601E-05  7.13693539E-05  7.08385517E-05  7.46231735E-05  7.26435554E-05  5.93579657E-05  5.35087110E-05  5.48168935E-05  6.38050138E-05  7.76028308E-05  9.92071419E-05  1.27412558E-04  1.76897494E-04  2.15905719E-04  2.24715367E-04  2.38132727E-04  2.79299385E-04
    3.54172282E-04  3.61956600E-04  3.10932292E-04  2.57690328E-04  2.43423939E-04  2.42154283E-04  2.74199701E-04  3.10132529E-04  3.82694326E-04  4.57153785E-04  4.70730288E-04  4.74927146E-04  5.16849819E-04  5.77034974E-04  6.69635129E-04  8.50450969E-04  9.51733853E-04  9.08205600E-04  7.50821502E-04  6.57675929E-04
    9.92846939E-05  8.80285604E-05  7.10870497E-05  5.97674046E-05  5.24019818E-05  4.38183094E-05  3.87804411E-05  3.92671998E-05  4.59668910E-05  5.70035862E-05  6.90422933E-05  8.10549493E-05  8.92061187E-05  1.04159166E-04  1.02807392E-04  9.48191044E-05  8.20491861E-05  8.99099244E-05  1.05568615E-04  1.28583085E-04
    1.62142184E-04  2.48204205E-04  3.87069283E-04  5.30153391E-04  7.06942959E-04  8.99561031E-04       0.00103683       0.00125395       0.00151996       0.00169625       0.00176517       0.00176238       0.00182139       0.00183839       0.00163040       0.00149016       0.00135476       0.00135625       0.00144399       0.00161462
         0.00191911       0.00236514       0.00285004       0.00319061       0.00327484       0.00385655       0.00496420       0.00544885       0.00569799       0.00499224       0.00362774       0.00241653       0.00175794       0.00136481       0.00100489  5.76150430E-04  3.76059556E-04  2.92901877E-04  2.49249145E-04  2.13689608E-04
    1.72344137E-04  1.31432248E-04  1.03574969E-04  7.89001653E-05  7.01581643E-05  6.03996374E-05  6.19155063E-05  5.86001812E-05  4.72318087E-05  4.30918811E-05  4.19444963E-05  4.89075415E-05  6.04446655E-05  7.52136185E-05  9.69011563E-05  1.38353865E-04  1.80144228E-04  1.88578032E-04  1.98280766E-04  2.30362577E-04
    2.96290781E-04  3.27531739E-04  2.88666238E-04  2.37035185E-04  2.03628631E-04  2.10882125E-04  2.21217738E-04  2.52912681E-04  3.09726355E-04  3.95059796E-04  4.36758448E-04  4.33448360E-04  4.72372109E-04  5.26870749E-04  5.70601020E-04  7.01361613E-04  8.21152019E-04  8.50937192E-04  7.35310505E-04  6.05050502E-04
    1.03877474E-04  9.63677472E-05  8.14905266E-05  7.00267496E-05  6.06571817E-05  4.89744715E-05  4.54510218E-05  4.69080596E-05  5.37909500E-05  6.20792911E-05  7.51144078E-05  9.50094680E-05  9.51071862E-05  1.07222415E-04  1.10453250E-04  9.55152138E-05  8.18155528E-05  8.32442713E-05  9.02545158E-05  1.08017846E-04
    1.28853091E-04  1.72443483E-04  2.65458541E-04  3.76587105E-04  5.02410662E-04  6.47782062E-04  8.16249856E-04       0.00101656       0.00122161       0.00131484       0.00148138       0.00153173       0.00145765       0.00153707       0.00133984       0.00119005       0.00113198       0.00117309       0.00126657       0.00136118
         0.00157610       0.00195448       0.00244194       0.00289827       0.00297825       0.00361635       0.00458291       0.00539854       0.00562090       0.00498932       0.00406787       0.00273077       0.00194780       0.00152761       0.00118804  6.85089418E-04  4.15029857E-04  3.28839679E-04  2.72588867E-04  2.20749754E-04
    1.76411162E-04  1.38210046E-04  1.11685427E-04  8.79403242E-05  7.26168883E-05  5.92228850E-05  5.61424516E-05  5.20577689E-05  4.05138142E-05  3.59574626E-05  3.56216098E-05  3.55772087E-05  4.58032993E-05  6.19870600E-05  8.07598551E-05  1.11173664E-04  1.52852886E-04  1.69829392E-04  1.78966907E-04  2.15843519E-04
    2.68931097E-04  2.87788180E-04  2.71872955E-04  2.39809029E-04  1.96070500E-04  1.92187165E-04  1.92465567E-04  2.08235855E-04  2.41495431E-04  3.31792031E-04  3.95286784E-04  4.22705288E-04  4.55787697E-04  4.95059789E-04  5.38319516E-04  6.14464674E-04  6.77070623E-04  7.84497939E-04  7.16586210E-04  5.86350218E-04
    1.11372653E-04  1.04294342E-04  9.36893576E-05  8.01957157E-05  6.98124563E-05  5.99094317E-05  5.31596065E-05  5.71048676E-05  6.63659869E-05  7.32297947E-05  8.12734949E-05  1.01580616E-04  1.07678917E-04  1.11211159E-04  1.20152126E-04  1.08967898E-04  8.96911720E-05  8.53166653E-05  8.67174924E-05  9.57504668E-05
    1.04390755E-04  1.25198273E-04  1.83648166E-04  2.61395654E-04  3.68154620E-04  4.80919598E-04  6.16272388E-04  8.12146428E-04       0.00102231       0.00112636       0.00128779       0.00131301       0.00121595       0.00113256       0.00105734  9.29377567E-04  9.06170166E-04  9.76973715E-04       0.00108667       0.00118473
         0.00134435       0.00157265       0.00199718       0.00251248       0.00278840       0.00337784       0.00417206       0.00518658       0.00529810       0.00500146       0.00408753       0.00293301       0.00199153       0.00159679       0.00128045  7.97918204E-04  4.90874011E-04  3.73027894E-04  3.13891263E-04  2.49823338E-04
    1.83838652E-04  1.40712494E-04  1.09823155E-04  9.02341205E-05  7.08296115E-05  6.13241336E-05  5.32324234E-05  4.63554824E-05  3.64797908E-05  3.00474880E-05  2.88263607E-05  2.77109898E-05  3.13747695E-05  4.56629113E-05  6.23233970E-05  8.64884437E-05  1.17951740E-04  1.46945404E-04  1.57823670E-04  1.98023911E-04
    2.35167685E-04  2.48257338E-04  2.44728574E-04  2.27397213E-04  2.10952254E-04  1.90180395E-04  1.76249906E-04  1.73039107E-04  1.86025799E-04  2.48476748E-04  3.22429776E-04  3.65291805E-04  4.16877747E-04  4.58100146E-04  5.21524127E-04  5.77372984E-04  5.99169216E-04  6.68194532E-04  7.01911676E-04  5.81890752E-04
    1.24360924E-04  1.12678180E-04  1.01795277E-04  8.60343248E-05  7.93503488E-05  7.07828287E-05  6.24310427E-05  6.61641093E-05  7.56786092E-05  8.38535002E-05  9.23728915E-05  1.05557038E-04  1.21175057E-04  1.21317213E-04  1.29220832E-04  1.21958905E-04  1.05286274E-04  8.94994973E-05  8.58092600E-05  9.35299325E-05
    9.21547314E-05  1.02432089E-04  1.31435271E-04  1.93037169E-04  2.67901195E-04  3.81115935E-04  4.83900970E-04  6.43847476E-04  8.88947095E-04       0.00105766       0.00116439       0.00118821       0.00101252  8.70251956E-04  8.29172758E-04  7.22573663E-04  6.91967774E-04  7.68335394E-04  9.00818763E-04       0.00102282
         0.00113690       0.00135790       0.00163008       0.00202655       0.00248850       0.00315847       0.00400721       0.00469475       0.00500487       0.00484480       0.00402181       0.00296509       0.00205643       0.00159859       0.00128136  8.95851134E-04  5.98166756E-04  4.64352768E-04  3.63278036E-04  2.81581288E-04
    1.99932010E-04  1.45793384E-04  1.08329385E-04  8.84537779E-05  7.14024836E-05  6.13144129E-05  5.36114073E-05  4.24728646E-05  3.31847659E-05  2.64954524E-05  2.49070554E-05  2.39497247E-05  2.37649128E-05  3.35712967E-05  5.07256522E-05  6.94252206E-05  9.37341644E-05  1.18261051E-04  1.44769647E-04  1.75600374E-04
    2.03988647E-04  2.26992484E-04  2.44558101E-04  2.34821059E-04  2.14789837E-04  1.99632361E-04  1.72538516E-04  1.54739382E-04  1.66205984E-04  2.02050135E-04  2.77527571E-04  3.39651732E-04  4.10178990E-04  4.61141009E-04  5.08901987E-04  5.41307633E-04  5.79944826E-04  6.02893741E-04  6.78649801E-04  6.39734352E-04
    1.30476357E-04  1.15468906E-04  1.01609714E-04  8.56810414E-05  8.73909143E-05  7.62706076E-05  7.08081681E-05  6.86903319E-05  7.47867521E-05  8.31012491E-05  9.52263031E-05  9.98918631E-05  1.13563101E-04  1.19846779E-04  1.24309138E-04  1.26699196E-04  1.14809729E-04  9.72293915E-05  8.74509759E-05  8.69106128E-05
    8.27524879E-05  8.30716646E-05  1.00335442E-04  1.45107782E-04  1.98885545E-04  2.93711571E-04  3.88929657E-04  5.07636879E-04  7.29569687E-04  9.40512830E-04       0.00105081       0.00106337  9.28456382E-04  7.50313514E-04  6.67337864E-04  6.29712409E-04  5.80489027E-04  6.34589085E-04  7.30059713E-04  8.69641953E-04
         0.00101705       0.00113597       0.00140885       0.00168824       0.00228614       0.00310397       0.00371654       0.00433483       0.00476433       0.00456763       0.00409923       0.00296259       0.00207699       0.00165310       0.00126215  9.66138618E-04  6.82784943E-04  5.21909230E-04  3.90349075E-04  3.07296666E-04
    2.18133872E-04  1.50620654E-04  1.04409891E-04  8.01409134E-05  6.71601090E-05  5.85232984E-05  4.93987064E-05  3.86765598E-05  3.01633899E-05  2.33689830E-05  2.03972947E-05  1.98038791E-05  1.96884092E-05  2.49588300E-05  3.70744657E-05  5.28097673E-05  7.06717066E-05  9.23788779E-05  1.21715548E-04  1.39931854E-04
    1.66968728E-04  1.99368435E-04  2.18936674E-04  2.22920192E-04  1.98541375E-04  1.90616453E-04  1.59513304E-04  1.40326399E-04  1.38029160E-04  1.68468640E-04  2.26673845E-04  3.18802409E-04  3.85705728E-04  4.37909151E-04  4.66078046E-04  4.81715639E-04  5.02799122E-04  5.10459627E-04  5.68635639E-04  5.75528502E-04
    1.55226539E-04  1.27443526E-04  1.16193818E-04  1.02510103E-04  9.81801954E-05  8.96768144E-05  8.77681084E-05  7.93160230E-05  7.83876954E-05  8.09751012E-05  9.80438526E-05  1.08407201E-04  1.08642348E-04  1.16768521E-04  1.26299677E-04  1.29277288E-04  1.25875832E-04  1.16113731E-04  9.88243984E-05  9.36724510E-05
    8.24582612E-05  7.90185520E-05  8.92329898E-05  1.19470384E-04  1.60965399E-04  2.37559812E-04  3.40966936E-04  4.29220007E-04  6.37281507E-04  8.65343953E-04       0.00103088       0.00106330  9.40395823E-04  7.08652337E-04  5.85942408E-04  5.81996188E-04  5.49982382E-04  5.52181992E-04  6.17310757E-04  7.60030495E-04
    8.87264070E-04  9.59591886E-04       0.00122517       0.00152208       0.00209368       0.00293324       0.00333511       0.00401538       0.00459918       0.00443140       0.00404159       0.00306661       0.00207440       0.00165791       0.00131228       0.00103119  7.53790194E-04  5.42514425E-04  4.01733938E-04  3.14532050E-04
    2.33452035E-04  1.61715034E-04  1.01963856E-04  7.66289245E-05  6.17960224E-05  5.42960071E-05  4.60356706E-05  3.43731352E-05  2.74833340E-05  2.12895840E-05  1.60444657E-05  1.65838889E-05  1.74484991E-05  2.04455112E-05  2.81722281E-05  4.12834292E-05  5.51202636E-05  6.97861920E-05  1.00833634E-04  1.21067967E-04
    1.38751707E-04  1.74371770E-04  2.01438446E-04  2.09032029E-04  1.97257324E-04  1.78382823E-04  1.49977130E-04  1.33421591E-04  1.22339625E-04  1.46121661E-04  2.02666132E-04  3.04132486E-04  3.92662458E-04  4.30957891E-04  4.59647042E-04  4.92485984E-04  4.83461843E-04  4.61774351E-04  4.96121061E-04  4.40073357E-04
    1.86798055E-04  1.39708501E-04  1.29345054E-04  1.13074507E-04  1.07425208E-04  9.65235676E-05  9.45089712E-05  9.10137657E-05  9.04077399E-05  8.46529975E-05  9.34419494E-05  1.08626173E-04  1.04565068E-04  1.05555562E-04  1.08928057E-04  1.15372120E-04  1.17916923E-04  1.21702278E-04  1.06254225E-04  9.53724053E-05
    8.89023877E-05  8.09342660E-05  8.46387710E-05  1.03443417E-04  1.29381394E-04  1.95610585E-04  2.78894933E-04  3.81109705E-04  5.48923772E-04  8.02546799E-04       0.00102418       0.00107310  9.40229126E-04  7.03666412E-04  5.39664451E-04  5.17965990E-04  5.25792890E-04  5.28141113E-04  5.48973457E-04  6.76722209E-04
    7.72884141E-04  8.65401966E-04       0.00101593       0.00131851       0.00185396       0.00245386       0.00294665       0.00362664       0.00428711       0.00425621       0.00364276       0.00280611       0.00198445       0.00163843       0.00139289       0.00115822  8.63848690E-04  5.80184825E-04  4.06628046E-04  3.31687394E-04
    2.57852554E-04  1.78744087E-04  1.13657956E-04  8.01756868E-05  6.15584577E-05  5.00650145E-05  4.53995717E-05  3.39823622E-05  2.64625513E-05  1.91694797E-05  1.43996200E-05  1.37956700E-05  1.57158763E-05  1.77906990E-05  2.28299924E-05  3.31222945E-05  4.58806906E-05  5.60816204E-05  7.92761237E-05  1.05326941E-04
    1.21495747E-04  1.57228628E-04  1.91274475E-04  1.92767537E-04  1.92956562E-04  1.81502213E-04  1.61476699E-04  1.36012586E-04  1.25254660E-04  1.38263203E-04  1.93064904E-04  3.07391172E-04  4.14908098E-04  4.74167462E-04  5.10206900E-04  5.37392496E-04  5.01385358E-04  4.40572386E-04  4.35532750E-04  3.86556019E-04
    2.13877781E-04  1.63203360E-04  1.42575142E-04  1.31168861E-04  1.20972728E-04  1.08262437E-04  1.02605103E-04  9.95331570E-05  1.10250775E-04  1.00179411E-04  9.15148690E-05  1.00492663E-04  9.98472977E-05  9.53200646E-05  9.76758135E-05  9.38714091E-05  1.00763913E-04  1.07962503E-04  1.03203743E-04  9.81058532E-05
    9.62652328E-05  8.42680516E-05  8.75086696E-05  9.86030080E-05  1.19992955E-04  1.72873491E-04  2.44867257E-04  3.45732358E-04  5.08881245E-04  7.58013649E-04       0.00102262       0.00112821  9.79094380E-04  7.33283497E-04  5.54680156E-04  5.20435685E-04  5.41904799E-04  5.53217369E-04  5.73035036E-04  6.48984182E-04
    7.49864600E-04  8.20794732E-04  9.22380726E-04       0.00115687       0.00161547       0.00216522       0.00273850       0.00327610       0.00378035       0.00405760       0.00330610       0.00252247       0.00194857       0.00165478       0.00146432       0.00124438  9.61358584E-04  6.56438567E-04  4.33931190E-04  3.28743638E-04
    2.83032580E-04  1.96540615E-04  1.29116938E-04  8.60359463E-05  6.05874049E-05  4.59637145E-05  3.90946531E-05  3.21248263E-05  2.53133758E-05  1.77972455E-05  1.33107078E-05  1.18742916E-05  1.38846631E-05  1.56102724E-05  1.92398320E-05  2.54847010E-05  3.59330959E-05  4.58380050E-05  6.48656647E-05  8.84794709E-05
    1.10362533E-04  1.33208352E-04  1.62059050E-04  1.74262990E-04  1.75710167E-04  1.74055778E-04  1.62471277E-04  1.31010989E-04  1.29017487E-04  1.35678826E-04  1.84857740E-04  2.92536873E-04  4.29578876E-04  5.19090402E-04  5.47377618E-04  5.41994905E-04  5.06721578E-04  4.35494838E-04  3.68400366E-04  3.21920557E-04
    2.32752353E-04  1.85716573E-04  1.61162480E-04  1.45861689E-04  1.35086852E-04  1.23606765E-04  1.16455755E-04  1.08058090E-04  1.23418947E-04  1.16365382E-04  9.59463480E-05  9.21119506E-05  9.84897441E-05  8.78379337E-05  8.09772676E-05  7.60974997E-05  8.26141162E-05  8.48397031E-05  9.16161895E-05  9.38111505E-05
    9.60316080E-05  8.81525685E-05  8.86203888E-05  9.96055294E-05  1.12525634E-04  1.53916566E-04  2.21818794E-04  3.03474886E-04  4.45387594E-04  6.82065984E-04  9.93197652E-04       0.00118747       0.00104211  8.11007958E-04  6.26075390E-04  5.72008774E-04  5.72571643E-04  5.72125463E-04  6.09807836E-04  6.46179547E-04
    7.40479223E-04  8.45621200E-04  8.69565493E-04       0.00103667       0.00135465       0.00185974       0.00248567       0.00299132       0.00329335       0.00353355       0.00307537       0.00242760       0.00194786       0.00166355       0.00148693       0.00125053       0.00106581  7.65831302E-04  5.00376461E-04  3.54175033E-04
    2.76804342E-04  2.10777719E-04  1.38485581E-04  9.28477312E-05  6.31547769E-05  4.61730478E-05  3.66548581E-05  2.91967984E-05  2.33482139E-05  1.72142282E-05  1.24392138E-05  1.08806779E-05  1.19343378E-05  1.41987009E-05  1.61274581E-05  1.95978005E-05  2.75634838E-05  3.85479406E-05  5.64328610E-05  7.50952169E-05
    9.97368197E-05  1.19743126E-04  1.44417991E-04  1.55989887E-04  1.48371541E-04  1.50313330E-04  1.54665694E-04  1.30001061E-04  1.33547793E-04  1.46270382E-04  1.86101225E-04  3.00142249E-04  4.38778543E-04  5.39669108E-04  6.05109605E-04  5.90101149E-04  5.02564076E-04  4.08635235E-04  3.41478012E-04  2.84751368E-04
    2.49110775E-04  2.05735085E-04  1.92905588E-04  1.73560182E-04  1.58973760E-04  1.43004718E-04  1.38216812E-04  1.25280518E-04  1.37476974E-04  1.39089236E-04  1.19118236E-04  1.04769760E-04  1.00106182E-04  9.14889043E-05  7.98899573E-05  6.80089306E-05  7.01853375E-05  7.39618416E-05  7.88324594E-05  8.93098122E-05
    8.99526516E-05  8.93307464E-05  8.94350957E-05  9.81214871E-05  1.14765808E-04  1.48831029E-04  2.04338099E-04  2.73415339E-04  3.91515324E-04  5.80689047E-04  8.97981433E-04       0.00120191       0.00116131  9.29653844E-04  7.45024745E-04  6.23160795E-04  6.30666592E-04  6.21614281E-04  6.40468034E-04  6.91093105E-04
    7.59462022E-04  8.74190164E-04  9.03758329E-04  9.79119264E-04       0.00114438       0.00153013       0.00201496       0.00243839       0.00277064       0.00298049       0.00282081       0.00235133       0.00189233       0.00177435       0.00162345       0.00130067       0.00101012  8.33842138E-04  5.33147245E-04  3.71643763E-04
    2.76435920E-04  2.00934700E-04  1.43197881E-04  9.95244379E-05  6.62115856E-05  4.64909115E-05  3.71663981E-05  2.81339525E-05  2.19435359E-05  1.64069445E-05  1.27592217E-05  1.04288443E-05  1.03221816E-05  1.19122372E-05  1.32911578E-05  1.65450187E-05  2.28216370E-05  3.30055243E-05  4.75584008E-05  6.57252074E-05
    9.17755357E-05  1.11475819E-04  1.27717785E-04  1.40015984E-04  1.36745326E-04  1.29700608E-04  1.31305263E-04  1.38309889E-04  1.42236015E-04  1.58835684E-04  2.04811912E-04  3.19431856E-04  4.61213101E-04  5.22838609E-04  6.22096270E-04  6.21940105E-04  5.12868984E-04  4.02406489E-04  3.34259219E-04  2.62014658E-04
    2.60622528E-04  2.34051537E-04  2.35944948E-04  2.28163071E-04  1.94053670E-04  1.67887800E-04  1.64445812E-04  1.48007741E-04  1.57466757E-04  1.75497526E-04  1.57933608E-04  1.39770925E-04  1.21751557E-04  1.07776053E-04  8.68642739E-05  6.79904213E-05  5.88323214E-05  6.66404592E-05  7.44249488E-05  8.57600766E-05
    8.01830276E-05  8.11445975E-05  8.88948373E-05  9.43227004E-05  1.10533132E-04  1.37561487E-04  1.78186167E-04  2.33129930E-04  3.38229204E-04  4.88393310E-04  7.55067583E-04       0.00104405       0.00112240       0.00103667  8.50045168E-04  7.06333413E-04  6.49535277E-04  6.44402037E-04  6.62386713E-04  7.65508892E-04
    8.44142709E-04  9.43304650E-04  9.49828957E-04  9.28588589E-04  9.66724352E-04       0.00125550       0.00167721       0.00201611       0.00234980       0.00257243       0.00252373       0.00225227       0.00191415       0.00177853       0.00176397       0.00140964  9.90623251E-04  7.75090321E-04  5.23294996E-04  3.82063520E-04
    2.86258007E-04  2.06548966E-04  1.42648344E-04  1.02271116E-04  7.41916541E-05  5.00728712E-05  3.69667754E-05  2.77934245E-05  2.08341043E-05  1.54668901E-05  1.16190263E-05  9.62753528E-06  9.63036849E-06  1.04124612E-05  1.14976343E-05  1.41190720E-05  1.69196484E-05  2.63874709E-05  3.83357058E-05  5.75924212E-05
    7.98349350E-05  1.01203326E-04  1.15484533E-04  1.25779012E-04  1.22643324E-04  1.13492245E-04  1.13554499E-04  1.25848013E-04  1.48881059E-04  1.67720288E-04  2.16025255E-04  3.53850251E-04  4.81566964E-04  5.27149055E-04  5.87439694E-04  6.27048282E-04  5.60613443E-04  4.10100574E-04  3.13237839E-04  2.50461986E-04
    2.58335972E-04  2.49056866E-04  2.75430120E-04  2.85769656E-04  2.44641174E-04  2.11452071E-04  1.91004910E-04  1.83537887E-04  1.94026355E-04  2.18287625E-04  2.05002926E-04  1.83063736E-04  1.53735053E-04  1.27630154E-04  1.02067934E-04  7.66324340E-05  5.89014997E-05  5.96323265E-05  7.09790486E-05  7.57493730E-05
    7.51448371E-05  7.47364680E-05  8.24890165E-05  9.03545649E-05  1.07780960E-04  1.30554505E-04  1.52973494E-04  1.96502083E-04  3.03578128E-04  4.41483642E-04  6.14587923E-04  8.62119274E-04       0.00103740       0.00100824  9.43542945E-04  7.90273279E-04  7.06541510E-04  6.74938129E-04  7.43523988E-04  8.76005976E-04
    9.84656867E-04  9.89966029E-04       0.00104516  9.79170502E-04  9.60273961E-04       0.00110712       0.00140391       0.00172143       0.00207398       0.00223829       0.00223667       0.00204980       0.00183867       0.00174534       0.00170930       0.00140905  9.62602203E-04  7.11654902E-04  5.00994580E-04  3.78102909E-04
    2.93144797E-04  2.09476404E-04  1.40837547E-04  1.02874759E-04  8.04322940E-05  5.45126371E-05  3.83914817E-05  2.85396965E-05  2.19479407E-05  1.65848954E-05  1.14026307E-05  9.30661922E-06  8.86939517E-06  9.71196054E-06  1.05554226E-05  1.26706564E-05  1.40075568E-05  2.10160249E-05  3.11829330E-05  4.64853490E-05
    6.59923635E-05  8.61517708E-05  1.01385677E-04  1.12166394E-04  1.11435525E-04  1.03967356E-04  1.05460066E-04  1.14436315E-04  1.49838688E-04  1.92691709E-04  2.34106416E-04  3.55490006E-04  4.87349647E-04  5.33725407E-04  5.51255829E-04  6.21191473E-04  5.77655965E-04  4.39494283E-04  3.17019475E-04  2.39857441E-04
    2.53735944E-04  2.58135743E-04  3.16862330E-04  3.40985035E-04  2.97412337E-04  2.60070850E-04  2.28411719E-04  2.20025587E-04  2.42250798E-04  2.80248723E-04  2.68512004E-04  2.39293216E-04  1.97167344E-04  1.49512170E-04  1.26593023E-04  9.42733587E-05  6.67911863E-05  5.74733687E-05  6.49799876E-05  6.84407038E-05