# File generated by Flopy version 3.6.0 on 06/12/2024 at 16:25:22.
BEGIN griddata
  strt
    INTERNAL  FACTOR  1.0
        15.00000000      15.00000000      15.00000000      15.00000000      15.00000000      15.00000000      15.00000000      15.00000000      15.00000000      15.00000000      15.00000000      15.00000000      15.00000000      15.00000000      15.00000000      15.00000000      15.00000000      15.00000000      15.00000000      15.00000000
        15.00000000      15.00000000      15.00000000      15.00000000      15.00000000      15.00000000      15.00000000      15.00000000      15.00000000      15.00000000      15.00000000      15.00000000      15.00000000      15.00000000      15.00000000      15.00000000      15.00000000      15.00000000      15.00000000      15.00000000
        15.00000000      15.00000000      15.00000000      15.00000000      15.00000000      15.00000000      15.00000000      15.00000000      15.00000000      15.00000000      15.00000000      15.00000000      15.00000000      15.00000000      15.00000000      15.00000000      15.00000000      15.00000000      15.00000000      15.00000000
        15.00000000      15.00000000      15.00000000      15.00000000      15.00000000      15.00000000      15.00000000      15.00000000      15.00000000      15.00000000      15.00000000      15.00000000      15.00000000      15.00000000      15.00000000      15.00000000      15.00000000      15.00000000      15.00000000      15.00000000
        15.00000000      15.00000000      15.00000000      15.00000000      15.00000000      15.00000000      15.00000000      15.00000000      15.00000000      15.00000000      15.00000000      15.00000000      15.00000000      15.00000000      15.00000000      15.00000000      15.00000000      15.00000000      15.00000000      15.00000000
        15.03250709      15.03438371      15.03635937      15.04004723      15.04667371      15.05622165      15.06380087      15.06948178      15.07963800      15.09611104      15.11728059      15.13688064      15.14157687      15.12735894      15.10194133      15.08126168      15.06761054      15.05645537      15.04921359      15.04677330
        15.04499631      15.04095012      15.03476643      15.02812454      15.02337541      15.02067515      15.01929496      15.02095563      15.02965457      15.05150978      15.08439953      15.11991421      15.14624257      15.16546871      15.17733097      15.17698577      15.15777899      15.13325339      15.10299541      15.08081301
        15.07064629      15.06660307      15.06896561      15.08751305      15.10596907      15.11232804      15.11644970      15.12804494      15.13848556      15.13961601      15.13660728      15.13140712      15.12143174      15.10731885      15.09596504      15.09892612      15.10440765      15.10993138      15.12137605      15.14106081
        15.15911891      15.15438038      15.13418776      15.11804547      15.11207348      15.10484941      15.10327576      15.10136902      15.09748475      15.08623675      15.06689394      15.04691070      15.03261574      15.02180108      15.01594402      15.01428280      15.01474186      15.01675815      15.01925258      15.02177709
        15.02444218      15.02896534      15.03448975      15.03787739      15.03913090      15.03713000      15.03416966      15.03290275      15.03443354      15.03965902      15.05139519      15.06813717      15.08438734      15.10270735      15.12318670      15.15712816      15.19699855      15.22784541      15.23816798      15.23990522
        15.06812581      15.07160612      15.07732340      15.08925933      15.10587049      15.12401810      15.13744776      15.14842539      15.16446579      15.19277034      15.22175500      15.23609080      15.22808980      15.19974136      15.16621617      15.13713885      15.11869000      15.10723192      15.10069148      15.09524532
        15.08829110      15.08012025      15.06924433      15.05807329      15.04808951      15.04225570      15.04203279      15.05221560      15.08212687      15.13218384      15.18594964      15.23098488      15.26538712      15.29113730      15.30733427      15.30799497      15.28459826      15.25224251      15.22224561      15.19786967
        15.18123864      15.18205137      15.20193885      15.22277861      15.23769816      15.24318851      15.25549890      15.26946107      15.27847413      15.27216987      15.26268811      15.24670368      15.23037046      15.21191822      15.20283747      15.20759347      15.21761812      15.23144740      15.25212556      15.27659631
        15.29475458      15.29455620      15.28623808      15.28143438      15.27063724      15.25201922      15.23538453      15.21295846      15.18157348      15.14580376      15.11375466      15.08499800      15.06252324      15.04690207      15.03898386      15.03623951      15.03754332      15.03994405      15.04337293      15.04846076
        15.05586007      15.06393187      15.07075673      15.07462989      15.07636586      15.07694359      15.07926125      15.08750242      15.10130369      15.12434437      15.14770657      15.16932511      15.19003225      15.22042934      15.25976103      15.30089458      15.32607706      15.33903177      15.35575964      15.37019321
        15.09473360      15.10073855      15.11336082      15.13286897      15.15550609      15.17532007      15.19660309      15.22164077      15.25068289      15.28088211      15.30150979      15.30495993      15.29401660      15.26947223      15.23781113      15.20590951      15.18326911      15.16852276      15.15519208      15.14086930
        15.12807303      15.11629185      15.10278525      15.08930174      15.08005095      15.07745535      15.08682657      15.11098189      15.15844818      15.21671834      15.26823832      15.31375327      15.35743252      15.38988501      15.40914108      15.41900924      15.41196758      15.39561335      15.38707528      15.37731660
        15.36463150      15.36673012      15.38111145      15.38350301      15.38287277      15.37848346      15.37536813      15.36729046      15.35491326      15.34217140      15.32880758      15.31347181      15.29779257      15.28619681      15.28264739      15.28485978      15.29682267      15.31985519      15.34699532      15.37328792
        15.39096039      15.40344886      15.41217720      15.40990824      15.38879026      15.35833906      15.32247869      15.28398616      15.24000326      15.19675835      15.15836121      15.12798417      15.10285272      15.08360010      15.07133186      15.06697885      15.06852322      15.07099482      15.07499815      15.08025635
        15.08693551      15.09188695      15.09525501      15.09836966      15.10297114      15.11409194      15.13745198      15.17547876      15.22290308      15.26690240      15.29300434      15.31916861      15.35461187      15.39076875      15.42658286      15.44835077      15.45779281      15.46606687      15.47957406      15.49059774
        15.12425089      15.13080615      15.14717043      15.17202934      15.19956311      15.23031215      15.26507705      15.29886980      15.33109720      15.35518841      15.36619889      15.36610174      15.35359649      15.33386531      15.30658451      15.27230152      15.24107333      15.21801637      15.19819306      15.17994740
        15.16350314      15.15116634      15.14023694      15.13195704      15.12916897      15.13616642      15.15362118      15.18504218      15.23367430      15.28683360      15.34454431      15.40478138      15.45222452      15.48512897      15.50970890      15.52740277      15.53604150      15.53617367      15.53960290      15.53958261
        15.53079579      15.51952332      15.51139386      15.50060336      15.48599917      15.46869829      15.44778105      15.42289288      15.39824782      15.37890030      15.36478630      15.35378272      15.34592283      15.34309545      15.34480023      15.35447957      15.37561289      15.40178501      15.42985279      15.45336815
        15.47023675      15.48172149      15.48121995      15.46897325      15.44674454      15.41328803      15.37288676      15.33183581      15.29169665      15.25349493      15.21738659      15.18770839      15.16201142      15.13820223      15.12046170      15.11074062      15.10734751      15.10645966      15.10628071      15.10633241
        15.10616792      15.10664868      15.10834797      15.11399122      15.12798930      15.16159684      15.21954250      15.29924075      15.37992817      15.44370123      15.48572173      15.51924535      15.55396657      15.57212534      15.58039048      15.57992905      15.57660212      15.57133517      15.56283116      15.55684953
        15.16523390      15.17896325      15.20616190      15.24015999      15.27034940      15.30338252      15.33633667      15.36470632      15.38778070      15.40026346      15.40286450      15.39930816      15.38878912      15.37048993      15.34403826      15.31069680      15.27699985      15.24951325      15.22827832      15.21154430
        15.19947033      15.19334580      15.19169700      15.19763670      15.20931357      15.22673406      15.24856672      15.28893091      15.34790759      15.41523901      15.47691131      15.52206455      15.54851408      15.57011911      15.59167515      15.60547282      15.61484672      15.61846640      15.61568652      15.61042456
        15.60178677      15.58725078      15.57512532      15.56215973      15.54501926      15.52565286      15.50484846      15.48077689      15.45522898      15.43752357      15.42749619      15.42434072      15.42964518      15.43671819      15.44813532      15.46441340      15.48055419      15.49483312      15.50946563      15.51856631
        15.52244228      15.51995304      15.51245843      15.49739419      15.47502670      15.44607332      15.41222081      15.37459217      15.34071603      15.31304872      15.28712177      15.26187041      15.23640497      15.20694582      15.18172974      15.16041240      15.14397142      15.13377187      15.12658871      15.12221424
        15.11982401      15.11982446      15.12419781      15.13646131      15.16825536      15.23271512      15.33552528      15.44232296      15.53173351      15.59652709      15.63808953      15.65941402      15.67037439      15.66833272      15.65707045      15.64145201      15.62523726      15.60970739      15.59597408      15.58618504
        15.24847945      15.26736422      15.30055567      15.33038087      15.34992821      15.36721790      15.38479156      15.40163786      15.41292441      15.41721130      15.41659827      15.41227929      15.40337418      15.38711979      15.36232956      15.33053087      15.29805736      15.27038359      15.24882679      15.23431252
        15.22928365      15.23279195      15.24390575      15.26469466      15.29455294      15.32647038      15.36930179      15.43144050      15.50099424      15.55792648      15.59244085      15.60971128      15.61878407      15.62738443      15.63527594      15.64022163      15.64228103      15.64185712      15.63915507      15.63391546
        15.62634567      15.61646020      15.60531204      15.59277117      15.57929130      15.56306608      15.54618667      15.53444373      15.52448081      15.52061577      15.52491364      15.53267991      15.54383212      15.55297649      15.56008640      15.56723539      15.57043527      15.56854166      15.56363832      15.55882388
        15.55294841      15.54620579      15.53701688      15.52286972      15.50079200      15.47415587      15.44391542      15.41185695      15.38263925      15.36080256      15.34289969      15.32465461      15.30408729      15.27323981      15.23679790      15.20365589      15.17613157      15.15714484      15.14646707      15.14262485
        15.14413234      15.15003689      15.16184654      15.18950703      15.25007487      15.35399711      15.47403055      15.57003423      15.63961200      15.68083372      15.70399912      15.71269403      15.71059950      15.70028182      15.68379180      15.66402241      15.64552816      15.63019184      15.61889815      15.61340003
        15.37641720      15.38651837      15.39985057      15.40373270      15.40522275      15.40724425      15.41171628      15.42005397      15.42603832      15.42836445      15.42746828      15.42264621      15.41336533      15.39810769      15.37527482      15.34374584      15.30872208      15.27861211      15.25581341      15.24358224
        15.24460093      15.25817372      15.28355258      15.31965062      15.36108843      15.40563251      15.46751858      15.53939085      15.59571797      15.62596691      15.63905897      15.64466377      15.64742056      15.64915128      15.65017668      15.65029746      15.64993896      15.64931049      15.64807368      15.64554920
        15.64118632      15.63424426      15.62418354      15.61257019      15.60245420      15.59490313      15.58864258      15.58713513      15.59155431      15.59781689      15.60669642      15.61640193      15.62250139      15.62756281      15.63071509      15.62917873      15.62299247      15.61205589      15.59959089      15.58896814
        15.57967523      15.57324066      15.56759738      15.55479871      15.53229811      15.50203185      15.47134051      15.44151986      15.41482014      15.39408623      15.37794291      15.36274372      15.34607999      15.32131316      15.28449205      15.24710877      15.21780279      15.20031594      15.19607025      15.19608599
        15.19749498      15.20960784      15.23855110      15.29118521      15.38073970      15.49274806      15.58680571      15.65161058      15.69179999      15.71459882      15.72817368      15.73363646      15.73063936      15.72111979      15.70669830      15.68972591      15.67421440      15.66185196      15.65226775      15.64909308
        15.51777458      15.50562570      15.48535747      15.46816117      15.45785973      15.45143803      15.44829298      15.44684962      15.44544489      15.44342257      15.44026386      15.43432237      15.42461353      15.40887006      15.38505989      15.35281781      15.31436411      15.27659999      15.24693301      15.23030969
        15.24173227      15.27497785      15.31916818      15.36561461      15.41285338      15.46895351      15.53779172      15.59748781      15.63091626      15.64504490      15.65038763      15.65289087      15.65414088      15.65461829      15.65455940      15.65435780      15.65431099      15.65460152      15.65486457      15.65476785
        15.65303131      15.64858263      15.64109534      15.63353283      15.62806817      15.62730465      15.63165137      15.63799718      15.64644579      15.65683527      15.66636665      15.67296906      15.67469054      15.67626817      15.67690758      15.67069859      15.66006414      15.64844561      15.63855808      15.62981141
        15.62176205      15.61811096      15.61578186      15.60339494      15.57930993      15.54384594      15.50568479      15.47131609      15.44112889      15.41987732      15.40457074      15.38895532      15.37345464      15.35501098      15.32899865      15.29828465      15.27420719      15.26509289      15.26623623      15.26655751
        15.27100177      15.29065516      15.33522954      15.40880217      15.50434978      15.59143341      15.64985332      15.68813499      15.71696090      15.73680587      15.74878405      15.75212470      15.74853184      15.74109831      15.73116544      15.72013153      15.70877681      15.69912785      15.69169499      15.68930113
        15.61689645      15.59519386      15.56123150      15.53286102      15.51502583      15.50355397      15.49265119      15.48072152      15.47010549      15.46352805      15.45785233      15.44983114      15.43853239      15.42162790      15.39691810      15.36139993      15.31463001      15.25982934      15.19952265      15.16579403
        15.20384307      15.27633009      15.34423727      15.40369011      15.46637750      15.53275341      15.59074522      15.62566736      15.64136446      15.64819511      15.65238146      15.65500793      15.65657396      15.65745115      15.65775147      15.65792651      15.65856218      15.65982632      15.66144895      15.66326524
        15.66423381      15.66323810      15.66173614      15.66267876      15.66433664      15.66795040      15.67538801      15.68628494      15.70128501      15.71449425      15.72002528      15.71972395      15.71845889      15.71571818      15.70954783      15.70219515      15.69540910      15.69277373      15.69462415      15.69749213
        15.69894539      15.70580100      15.69985645      15.67963417      15.64578685      15.60472977      15.55910517      15.51898320      15.49215979      15.47446858      15.45646582      15.44032529      15.42692484      15.41555922      15.39593304      15.37292150      15.35888579      15.34814696      15.34173194      15.33997912
        15.35760472      15.39573927      15.45081836      15.52208055      15.59548259      15.65246970      15.69343937      15.72599586      15.75001364      15.76506471      15.77202354      15.77238750      15.76860327      15.76237970      15.75472862      15.74646180      15.73817443      15.73221031      15.73247800      15.73500383
        15.67967517      15.65601327      15.62390503      15.59100080      15.56349913      15.54309862      15.52779553      15.51336495      15.50099890      15.49244285      15.48226565      15.46950550      15.45425726      15.43438437      15.40666774      15.36732278      15.31340161      15.23282584      15.10040440      15.04662205
        15.04336521      14.91738118      14.91147583      15.10132337      15.25747046      15.36321831      15.44581232      15.51935289      15.57754803      15.61430431      15.63308854      15.64239808      15.64796558      15.65227939      15.65561546      15.65800324      15.65956662      15.66061574      15.66200441      15.66429537
        15.66709536      15.67015620      15.67368169      15.67792249      15.68322658      15.69024639      15.69816837      15.70576652      15.71406016      15.72715747      15.74501239      15.75978234      15.76464289      15.76094459      15.75599810      15.75266194      15.74797902      15.74224411      15.74008161      15.74433141
        15.75555990      15.77471658      15.76764205      15.77375788      15.81121931      15.82281171      15.81361014      15.82551666      15.81386137      15.78357700      15.74068863      15.69918106      15.65869776      15.62346719      15.60202195      15.59160297      15.58797766      15.57909901      15.57104340      15.55900865
        15.53953571      15.51898086      15.49768948      15.46564756      15.44370184      15.44796322      15.47784147      15.51979952      15.56392946      15.61527278      15.66778482      15.70823118      15.73946389      15.76381849      15.78058511      15.78970915      15.79205951      15.79025174      15.78551559      15.77944025
        15.77388029      15.76781983      15.76363896      15.76468440      15.77123018      15.77534215      15.72640130      15.70552619      15.67355207      15.64063184      15.61020569      15.58466826      15.56297982      15.54476841      15.52860117      15.51325574      15.49911997      15.48388887      15.46559123      15.44233338
        15.41290907      15.37508566      15.32351460      15.23825589      15.10136261      14.97094863      15.12705420      15.01872197      14.79795101      14.66277977      14.71680758      14.50822905      14.37583294      14.39842999      14.16811290      14.01681458      14.02735961      13.46382153      14.67467519      14.79028490
        14.42985971      14.55842969      14.17913677      14.32378919      14.02963180      14.28162601      14.49790095      14.72567064      14.77057997      14.47719616      14.20273735      14.04134477      14.35650793      14.30487694      14.62369530      14.54388161      14.90657826      14.81611759      14.19391622      14.34724681
        14.35741481      14.43388604      14.54567524      14.56672229      14.65096404      14.76945977      14.81660397      14.89120865      14.94947784      15.08593394      14.98645210      15.10344981      15.24844773      15.38615507      15.48350198      15.55302375      15.59720451      15.62117778      15.63376009      15.64141942
        15.64711066      15.65192486      15.65612969      15.65930942      15.66190080      15.66498729      15.66944637      15.67410555      15.67810119      15.68276692      15.68889909      15.69660104      15.70684305      15.71951920      15.73202750      15.74500909      15.76071529      15.77883027      15.79295197      15.79758852
        15.79516714      15.79126023      15.78796984      15.78596441      15.78484799      15.78794932      15.79883890      15.81854557      15.84443523      15.84379646      15.85058639      15.88885244      15.89974553      15.85205707      15.85628769      15.87198916      15.87290100      15.87490281      15.88237540      15.88277777
        15.88367489      15.88734229      15.88888278      15.86272540      15.86968498      15.87799050      15.88066949      15.88516292      15.88640819      15.89012627      15.89092130      15.88985744      15.88852329      15.89757749      15.89500088      15.89362872      15.89434457      15.89822957      15.89933402      15.90447186
        15.90661556      15.91805159      15.92204285      15.89548411      15.89688891      15.90052190      15.90124298      15.90132508      15.90869614      15.91003113      15.90967733      15.92513680      15.92638282      15.89020097      15.89752947      15.92201551      15.92254838      15.90994781      15.89765823      15.87498503
        15.84414911      15.81369531      15.78984655      15.77165234      15.75797217      15.75447983      15.75789265      15.75217231      15.74162740      15.72294142      15.69908512      15.67507636      15.64435932      15.60775236      15.58767825      15.60377517      15.62486298      15.64262588      15.66536196      15.69844253
        15.72946653      15.75555659      15.77797417      15.79671303      15.80712755      15.81038426      15.80966865      15.80647908      15.80164382      15.79530067      15.79028760      15.78780798      15.78903165      15.79409261      15.79831803      15.79909199      15.75568602      15.74246376      15.71657818      15.68600067
        15.65477584      15.62535613      15.59843203      15.57352012      15.55113329      15.53030643      15.51278900      15.49439639      15.47349435      15.44817209      15.41809912      15.38497295      15.34605717      15.28648590      15.18105311      15.04149877      15.02555049      15.13370168      15.12273369      15.15022703
        15.30173846      15.42838552      15.51282177      15.56929269      15.60323971      15.62229612      15.63309101      15.64039762      15.64655165      15.65219122      15.65793363      15.66403860      15.67053791      15.67794556      15.68506164      15.69164920      15.69851141      15.70501091      15.71149362      15.72067494
        15.73529284      15.75375653      15.77135380      15.78752692      15.80421952      15.81708741      15.82216222      15.82203802      15.82070249      15.82203383      15.82612537      15.83115603      15.83818633      15.84948493      15.86895124      15.89471446      15.91893426      15.93491580      15.93774419      15.94082722
        15.94595809      15.94798951      15.94665387      15.94466457      15.93880813      15.93067749      15.92052838      15.90700898      15.89613367      15.88843167      15.87870845      15.87247467      15.86316480      15.84964197      15.82911824      15.80726984      15.78286434      15.75938915      15.73636039      15.72303739
        15.72595297      15.74083305      15.74809570      15.75223573      15.76400358      15.78088294      15.79781395      15.81353944      15.82634878      15.83424356      15.83541816      15.83329744      15.82926630      15.82496847      15.82165193      15.81794577      15.81530387      15.81539109      15.81627027      15.81686326
        15.81475672      15.81247279      15.77359932      15.76321313      15.74373614      15.71727769      15.68748406      15.65457458      15.62282625      15.59428457      15.56985418      15.54900178      15.53002744      15.50953018      15.48439774      15.45539318      15.42725052      15.40016713      15.36959378      15.33280487
        15.28500691      15.25316080      15.29418584      15.39068012      15.47433539      15.53245358      15.57453056      15.60283782      15.62036530      15.63208580      15.64063708      15.64787302      15.65522492      15.66366982      15.67372969      15.68416843      15.69471824      15.70518492      15.71558108      15.72471430
        15.73250525      15.74220563      15.75816427      15.77838713      15.79608312      15.81197113      15.82588101      15.83761827      15.84425204      15.84706495      15.84939464      15.85521351      15.86648444      15.87970973      15.88856478      15.89744777      15.90798640      15.92232601      15.93752040      15.94776953
        15.95341341      15.95675295      15.95945895      15.96199472      15.96351045      15.96395343      15.96318856      15.95976890      15.95349325      15.94617385      15.93412345      15.91976049      15.90384996      15.88724625      15.86751131      15.84630856      15.82641391      15.80917200      15.79818389      15.79941503
        15.80809877      15.81569947      15.82328085      15.83088423      15.84267856      15.85430016      15.86512077      15.87046611      15.87033334      15.86674192      15.86367111      15.85871218      15.85308729      15.84831796      15.84457056      15.84180898      15.83950317      15.83787494      15.83480439      15.83045002
        15.82565295      15.82247061      15.78960335      15.77782248      15.75606356      15.72905460      15.69878822      15.66530527      15.63330570      15.60584421      15.58206747      15.56165746      15.54229448      15.52088267      15.49708766      15.47156880      15.44573139      15.42381633      15.40160580      15.37732020
        15.35621558      15.35685851      15.39377372      15.44809875      15.49612359      15.53712508      15.57297721      15.60038014      15.61947654      15.63271436      15.64265338      15.65159819      15.66091186      15.67237928      15.68548125      15.69897602      15.71261724      15.72701436      15.73936800      15.74948610
        15.76046512      15.77552815      15.79497895      15.81270591      15.82749339      15.84214199      15.85350933      15.86208653      15.86891860      15.87646143      15.88591785      15.89831467      15.91198412      15.92305560      15.92901012      15.93431386      15.94019987      15.94742623      15.95436559      15.95948466
        15.96318513      15.96674077      15.97020075      15.97398042      15.97708220      15.98052637      15.98275308      15.98178963      15.97718988      15.96857098      15.95582100      15.94120805      15.92535298      15.90860475      15.89279492      15.87777383      15.86481734      15.85336710      15.84834374      15.84974918
        15.85784975      15.86676789      15.87493704      15.88352029      15.89184612      15.89982961      15.90489356      15.90602741      15.90332175      15.89722784      15.89017693      15.88235278      15.87538966      15.86990781      15.86393249      15.85828665      15.85275867      15.84768419      15.84272299      15.83783502
        15.83348607      15.83090356      15.78900526      15.77473911      15.75156298      15.72461295      15.69536589      15.66722964      15.64097293      15.61403347      15.58810812      15.56648053      15.54857514      15.53043967      15.51002259      15.48940270      15.46929528      15.45080457      15.43523351      15.42226594
        15.41477429      15.42134052      15.44570688      15.47695191      15.50770508      15.53740875      15.56857747      15.59792788      15.61981118      15.63474110      15.64605692      15.65687992      15.66899457      15.68290677      15.69917646      15.71609115      15.73201367      15.74663536      15.75862049      15.77006609
        15.78431977      15.80121528      15.81948463      15.83625351      15.85124591      15.86360980      15.87381693      15.88430960      15.89630986      15.90864466      15.92000074      15.92917003      15.93621187      15.94107600      15.94450076      15.94743053      15.95211671      15.95787917      15.96288609      15.96723382
        15.97137764      15.97546706      15.97892917      15.98224978      15.98594534      15.98911769      15.99041076      15.98944706      15.98542709      15.97787088      15.96693702      15.95421966      15.94072424      15.92638193      15.91220471      15.90082054      15.89359202      15.88869348      15.88807292      15.89240950
        15.89938843      15.90560376      15.91086818      15.91618867      15.92167343      15.92652270      15.92933244      15.93109076      15.92840536      15.92135367      15.91132879      15.90130252      15.89163568      15.88332942      15.87559137      15.86831658      15.86100033      15.85437706      15.84908957      15.84467901
        15.84089717      15.83856772      15.77402596      15.76175133      15.74063099      15.71615901      15.68975653      15.66136557      15.63224235      15.60487975      15.58303551      15.56708419      15.55331287      15.53908939      15.52327855      15.50718869      15.49256809      15.47889980      15.46737048      15.45953640
        15.45790450      15.46409222      15.47692396      15.49388171      15.51623012      15.54288397      15.56964436      15.59487480      15.61676538      15.63312004      15.64614449      15.65912600      15.67375204      15.69043497      15.70917229      15.72673446      15.74245685      15.75653964      15.76934685      15.78338100