# File generated by Flopy version 3.7.0 on 06/19/2024 at 15:23:11.
BEGIN options
  SAVE_FLOWS
END options

BEGIN packages
  disv6  Reference.disv  disv
  oc6  Reference.oc  oc
  sto6  Reference.sto  sto
  npf6  Reference.npf  npf
  ic6  Reference.ic  ic
  rch6  Reference.rch  rch_0
  wel6  Reference.wel  wel_0
  riv6  Reference.riv  riv_0
  chd6  Reference.chd  chd_0
END packages

