# File generated by Flopy version 3.7.0 on 07/09/2024 at 15:37:31.
BEGIN options
END options

BEGIN griddata
  icelltype
    CONSTANT  0
  k
    INTERNAL  FACTOR  1.0
    1.25270334E-04  1.41692254E-04  1.56396085E-04  1.78033961E-04  1.97879061E-04  2.68713049E-04  3.15575245E-04  3.83329963E-04  3.99083962E-04  4.55816044E-04  5.51202344E-04  6.53564059E-04  7.77588033E-04       0.00103162       0.00129791       0.00148626       0.00142667       0.00146739       0.00167306       0.00184262
         0.00217098       0.00203930       0.00236549       0.00247865       0.00271230       0.00259210       0.00175309       0.00124287  9.69221246E-04  8.04539063E-04  7.68477282E-04  7.63483842E-04  7.81777882E-04  6.99786092E-04  5.72537518E-04  5.70967245E-04  5.62195336E-04  5.52252415E-04  5.35685140E-04  5.39884061E-04
    4.99487278E-04  5.56904982E-04  5.97381885E-04  6.91159752E-04  7.68856145E-04  7.42452166E-04  9.19146904E-04  9.30234896E-04  9.17243171E-04  8.34268240E-04  7.58291748E-04  8.61736564E-04  9.32104277E-04       0.00101361       0.00111926       0.00121705       0.00118943       0.00111758       0.00110910       0.00113561
         0.00111781       0.00119381       0.00139705       0.00141451       0.00121596       0.00114447       0.00122651       0.00121041       0.00117046       0.00125210       0.00129446       0.00140881       0.00107703  7.20874581E-04  5.71740366E-04  4.56005819E-04  3.94147221E-04  3.47887691E-04  3.85965362E-04  3.49531145E-04
    3.14167807E-04  2.91597201E-04  2.21008672E-04  1.75992279E-04  1.49676709E-04  1.53651972E-04  1.62316958E-04  1.82826927E-04  1.98380113E-04  1.93244827E-04  1.76577773E-04  1.55253668E-04  1.44406983E-04  1.53025113E-04  1.48004052E-04  1.74147760E-04  1.95092384E-04  2.35277369E-04  2.79437870E-04  2.91611103E-04
    1.47357789E-04  1.57712313E-04  1.78983863E-04  2.07085254E-04  2.52226963E-04  3.77610214E-04  4.25045911E-04  4.77740739E-04  4.47538320E-04  5.24349940E-04  7.21800298E-04  8.92068923E-04  9.15716518E-04  9.96387684E-04       0.00108008       0.00120718       0.00125334       0.00116888       0.00120666       0.00139391
         0.00169463       0.00170381       0.00199664       0.00201578       0.00194120       0.00194872       0.00155654       0.00123685       0.00104950  8.77844973E-04  9.19519305E-04  9.07843485E-04  8.44707673E-04  7.28062448E-04  6.60883034E-04  6.92248082E-04  6.82192943E-04  5.77344998E-04  4.86144553E-04  4.82192884E-04
    4.37549441E-04  5.01812220E-04  5.43235253E-04  5.53543299E-04  5.57909468E-04  5.16598767E-04  5.51906699E-04  5.17659353E-04  5.03097982E-04  5.00193641E-04  5.32099751E-04  5.78465622E-04  6.27705568E-04  7.71580450E-04  8.13932402E-04  7.41293238E-04  6.97605975E-04  6.65850609E-04  7.05670297E-04  8.73538039E-04
    9.26986780E-04  8.94729986E-04  8.86985747E-04  8.67819861E-04  8.64155492E-04  8.10868378E-04  8.32520682E-04  7.97818588E-04  8.09530261E-04  8.03076471E-04  6.16044832E-04  5.40010278E-04  3.99729300E-04  3.30898311E-04  3.34292958E-04  2.93725221E-04  2.84919883E-04  3.15819764E-04  3.85899461E-04  3.21482438E-04
    3.00994911E-04  2.64928477E-04  2.02432491E-04  1.89349924E-04  1.90572477E-04  1.96651008E-04  2.02667238E-04  2.16322260E-04  2.10363300E-04  1.86666160E-04  1.89047358E-04  1.64638386E-04  1.58211761E-04  1.74040640E-04  1.90699257E-04  2.24815452E-04  2.36621707E-04  2.56441747E-04  2.26001824E-04  2.29633131E-04
    1.38070837E-04  1.75096886E-04  2.46383916E-04  3.45008042E-04  4.28175760E-04  5.60992767E-04  5.16036777E-04  6.16613579E-04  6.48850379E-04  6.55973115E-04  6.63245886E-04  7.35193347E-04  7.15532682E-04  7.42641853E-04  8.20760262E-04  8.82309755E-04  8.62191526E-04  8.15545752E-04       0.00101342       0.00126400
         0.00155430       0.00149165       0.00165420       0.00187008       0.00203849       0.00198111       0.00147547       0.00112706       0.00102051  9.65716922E-04       0.00101143  9.75115137E-04  9.28248101E-04  8.02644515E-04  7.15944958E-04  7.62773727E-04  6.38364484E-04  5.39452387E-04  4.69781913E-04  4.20782389E-04
    3.91873572E-04  4.01575667E-04  3.59373390E-04  3.61370965E-04  3.47898207E-04  2.93067517E-04  3.04507355E-04  2.89701732E-04  3.20737703E-04  3.24812820E-04  3.52539913E-04  4.03844827E-04  4.58641215E-04  5.39621105E-04  5.43638955E-04  4.51739916E-04  4.40171361E-04  5.31263493E-04  6.36322369E-04  7.01439460E-04
    6.19761093E-04  5.40658798E-04  5.59377118E-04  5.17172736E-04  5.09080715E-04  4.82398151E-04  5.04044863E-04  4.71993253E-04  4.06194979E-04  3.56787659E-04  2.95937147E-04  2.94301879E-04  2.96185721E-04  3.11205581E-04  3.30358404E-04  2.94042055E-04  2.84415363E-04  2.80006456E-04  3.02592134E-04  2.64310777E-04
    2.32008522E-04  2.31213366E-04  1.97112055E-04  1.91758632E-04  1.69156576E-04  1.61891108E-04  1.75819139E-04  1.86505433E-04  2.10760551E-04  2.02110115E-04  1.93490259E-04  2.11631045E-04  2.34657728E-04  2.47181426E-04  2.54141354E-04  2.56479436E-04  2.29683071E-04  2.11854650E-04  2.07823999E-04  2.32099456E-04
    2.72435797E-04  3.75082370E-04  5.75316825E-04  7.49521671E-04  7.06040678E-04  7.70799518E-04  6.79732017E-04  6.76240601E-04  5.92116372E-04  5.83365581E-04  5.87807298E-04  6.03024188E-04  5.42791643E-04  5.62435104E-04  5.96091090E-04  7.08909651E-04  8.24769293E-04  8.99720445E-04       0.00106224       0.00135049
         0.00157259       0.00145082       0.00163745       0.00162883       0.00171479       0.00164133       0.00127273       0.00119509       0.00116211       0.00104967       0.00103938  8.90467215E-04  7.79773692E-04  7.22374314E-04  7.19468447E-04  6.19657118E-04  5.45767362E-04  4.73413284E-04  3.58797460E-04  3.15378795E-04
    2.70757468E-04  2.81153694E-04  2.65234096E-04  2.29172067E-04  1.86882388E-04  1.54675746E-04  1.95281936E-04  2.04144442E-04  2.26362236E-04  2.55892434E-04  2.90022714E-04  3.62849517E-04  3.88396485E-04  3.60479680E-04  3.89548849E-04  4.01019606E-04  4.26242192E-04  4.76741195E-04  4.69249821E-04  4.57694622E-04
    4.13949783E-04  3.79956583E-04  3.70264985E-04  3.67498547E-04  3.70598223E-04  3.75877982E-04  3.72806734E-04  3.49517151E-04  3.60696058E-04  3.73911876E-04  3.53391123E-04  4.08007130E-04  4.32932831E-04  4.01055065E-04  3.94044739E-04  3.16521056E-04  2.54788993E-04  2.15849722E-04  1.95137378E-04  1.71718782E-04
    1.79372917E-04  1.70974386E-04  1.49783571E-04  1.34197960E-04  1.39075655E-04  1.56118870E-04  1.70190315E-04  1.77871174E-04  1.71575599E-04  1.81593806E-04  2.06719585E-04  2.39460697E-04  2.63422647E-04  2.62312246E-04  2.27746268E-04  2.09046631E-04  1.96657428E-04  2.24299181E-04  2.48952816E-04  2.75549870E-04
    6.37096747E-04  8.04672905E-04  8.71372133E-04  8.38334376E-04  7.10262652E-04  7.05355205E-04  6.07371155E-04  6.33029565E-04  5.66924900E-04  4.78479252E-04  4.30079043E-04  3.98557567E-04  3.59230235E-04  4.15029428E-04  5.09183416E-04  6.39195906E-04  7.74885008E-04  8.87078842E-04       0.00115168       0.00122193
         0.00131954       0.00119208       0.00126055       0.00117545       0.00111000       0.00118314  9.84333729E-04  9.34861523E-04       0.00101225  8.41356320E-04  7.99555559E-04  7.29239215E-04  6.83388597E-04  5.82251013E-04  5.31340666E-04  4.90389583E-04  4.22550745E-04  3.55334102E-04  2.78900924E-04  2.71331600E-04
    2.29231097E-04  2.04023244E-04  1.55013853E-04  1.35567185E-04  1.32099183E-04  1.29008807E-04  1.57351190E-04  1.70889095E-04  2.27357887E-04  2.53254277E-04  2.69324571E-04  3.09180770E-04  3.23391187E-04  3.78234646E-04  3.62003261E-04  3.64100901E-04  4.12439507E-04  4.71692317E-04  4.39129928E-04  4.27903677E-04
    3.53752675E-04  3.29800412E-04  3.48791857E-04  3.78640990E-04  4.07311222E-04  4.23051123E-04  4.68153228E-04  4.52571521E-04  4.75437510E-04  4.93447506E-04  4.69558161E-04  4.77865005E-04  3.89826451E-04  2.88724419E-04  2.37399423E-04  1.81605591E-04  1.49015031E-04  1.32123192E-04  1.31110160E-04  1.17023937E-04
    1.18970203E-04  1.18131649E-04  9.87354320E-05  1.03800245E-04  1.11843358E-04  1.10076591E-04  1.19439024E-04  1.33018859E-04  1.55615975E-04  1.78592886E-04  2.01044611E-04  1.80431579E-04  1.81657840E-04  1.79430349E-04  1.84939597E-04  2.07150430E-04  2.00646465E-04  2.17006751E-04  2.19554291E-04  2.32816378E-04
    7.23995576E-04  7.67154174E-04  8.36109030E-04  7.77257121E-04  6.31937561E-04  6.91182010E-04  5.93674425E-04  5.50575214E-04  3.98490799E-04  3.44524566E-04  3.16257062E-04  3.11908154E-04  2.95938109E-04  3.37412035E-04  4.22694818E-04  5.66172996E-04  6.87148196E-04  6.44350186E-04  6.72516375E-04  7.06951303E-04
    7.94656396E-04  7.36548165E-04  7.28705115E-04  6.93060634E-04  6.92272321E-04  8.11810153E-04  7.83974384E-04  6.82237755E-04  6.70755349E-04  6.15196914E-04  5.99928983E-04  5.43146834E-04  4.44796199E-04  3.78242978E-04  3.26749234E-04  3.26282385E-04  3.16793390E-04  2.75372076E-04  2.17876179E-04  1.91309258E-04
    1.53960597E-04  1.28058265E-04  1.21472739E-04  1.27463101E-04  1.25369378E-04  1.30671049E-04  1.57113074E-04  1.73899424E-04  2.19508869E-04  2.54136036E-04  2.96159908E-04  3.58511074E-04  3.65536186E-04  3.98948447E-04  4.46326244E-04  4.68607852E-04  4.62783005E-04  4.20771046E-04  3.75102006E-04  3.41390488E-04
    3.12728422E-04  3.02900855E-04  3.39939706E-04  4.04074579E-04  4.36015700E-04  4.62534184E-04  5.72506750E-04  5.95396038E-04  6.06478874E-04  5.19283330E-04  3.82168398E-04  3.11777570E-04  2.24547943E-04  1.56981209E-04  1.46375040E-04  1.23716405E-04  1.06057733E-04  9.89242516E-05  1.04612698E-04  9.21015928E-05
    8.53107362E-05  7.59151296E-05  6.70422453E-05  7.28054893E-05  8.05150043E-05  8.07636308E-05  8.86012751E-05  1.04755821E-04  1.16806956E-04  1.18047903E-04  1.20952438E-04  1.18520450E-04  1.22711753E-04  1.32019038E-04  1.38343961E-04  1.39063405E-04  1.48136676E-04  1.86534660E-04  2.07945409E-04  2.53225033E-04
    6.69777568E-04  6.23955617E-04  6.80422503E-04  6.66557047E-04  5.41734722E-04  5.25107645E-04  4.08379887E-04  3.55218684E-04  2.98406227E-04  2.80922192E-04  2.70758348E-04  2.81474589E-04  2.71960898E-04  3.09783168E-04  3.80278202E-04  4.46733279E-04  4.38604213E-04  3.92119503E-04  3.70290010E-04  3.78800875E-04
    4.10874221E-04  3.53613709E-04  3.55385528E-04  3.91952500E-04  4.58364841E-04  5.30248401E-04  4.49906672E-04  4.07030536E-04  4.11192597E-04  3.82843940E-04  3.80196218E-04  3.15113045E-04  2.57673595E-04  2.11321964E-04  1.91578298E-04  1.65247866E-04  1.56005915E-04  1.51019027E-04  1.46452639E-04  1.42707115E-04
    1.47373190E-04  1.53494202E-04  1.60961113E-04  1.62122613E-04  1.63347103E-04  1.53853167E-04  1.96806026E-04  2.36001170E-04  3.10165495E-04  3.55384764E-04  3.82541491E-04  4.08271743E-04  3.82640088E-04  4.14657382E-04  4.15494969E-04  3.57512891E-04  3.19827373E-04  3.23932858E-04  3.11962255E-04  3.20169713E-04
    2.95399093E-04  3.28139208E-04  3.97496070E-04  5.04466399E-04  6.14630907E-04  6.34893649E-04  6.41839614E-04  5.40244124E-04  4.41376198E-04  3.32961724E-04  2.28329629E-04  1.82349996E-04  1.24444543E-04  8.75610328E-05  9.27526731E-05  8.51566278E-05  8.51312476E-05  8.38123577E-05  8.43732572E-05  6.59950864E-05
    5.44088749E-05  4.99569060E-05  4.45510732E-05  4.73829128E-05  4.83721367E-05  4.93946625E-05  5.02834688E-05  6.16616616E-05  7.13227768E-05  6.62649412E-05  6.51847453E-05  7.53198489E-05  8.05794090E-05  8.15540834E-05  8.27745417E-05  9.64748525E-05  1.24696854E-04  1.66280160E-04  2.08818742E-04  2.65368355E-04
    4.84194498E-04  5.07538222E-04  5.35417665E-04  4.75415078E-04  3.55371651E-04  3.26494264E-04  2.79623347E-04  2.80925596E-04  2.61709030E-04  2.55996854E-04  2.58687519E-04  2.95177266E-04  2.74484523E-04  3.04639996E-04  3.29800617E-04  3.17249776E-04  2.62550661E-04  2.02273529E-04  1.99042135E-04  2.01549904E-04
    2.19334361E-04  2.05017914E-04  2.40234939E-04  2.26618767E-04  2.34834362E-04  2.45431562E-04  2.02092126E-04  2.14068514E-04  2.16290871E-04  2.00121543E-04  1.74303314E-04  1.55559036E-04  1.25251029E-04  1.07451067E-04  1.05101638E-04  1.20086544E-04  1.31946039E-04  1.59475586E-04  1.57315972E-04  1.66731240E-04
    1.83795885E-04  2.02557662E-04  1.98301316E-04  1.90635737E-04  1.94782587E-04  2.13785117E-04  3.05265863E-04  3.30675408E-04  3.46033605E-04  3.36837573E-04  3.36503094E-04  3.84569025E-04  3.81882404E-04  3.61900754E-04  3.25693205E-04  2.74918284E-04  2.74594945E-04  2.92472749E-04  2.89934953E-04  3.44568270E-04
    4.14916273E-04  4.86298321E-04  5.98665426E-04  6.29624985E-04  6.89921886E-04  6.27642577E-04  5.19599452E-04  3.81503775E-04  2.53186702E-04  1.68288178E-04  1.11082028E-04  8.67354185E-05  7.38462332E-05  6.46345054E-05  7.66273108E-05  7.50702550E-05  6.78066226E-05  5.62493913E-05  4.93632043E-05  3.83385971E-05
    3.47081490E-05  3.32788307E-05  2.47335558E-05  2.21742539E-05  2.28427994E-05  2.41228139E-05  2.89882536E-05  3.82110639E-05  4.56128093E-05  4.83839475E-05  5.44062169E-05  6.15912616E-05  7.27655612E-05  8.21635287E-05  9.57075946E-05  1.20796231E-04  1.53368596E-04  2.08263769E-04  2.66505970E-04  3.17596242E-04
    4.23815744E-04  3.84535651E-04  3.70355904E-04  3.11593848E-04  2.67798006E-04  2.74449455E-04  2.56601261E-04  2.60588100E-04  2.28288955E-04  2.03319620E-04  2.05305190E-04  2.19975132E-04  2.09494037E-04  1.92896761E-04  1.79710142E-04  1.46343286E-04  1.11454300E-04  9.36721485E-05  9.89645615E-05  1.07177381E-04
    1.25300581E-04  1.10824181E-04  1.08644926E-04  1.05658856E-04  1.10929060E-04  1.23520425E-04  1.07742689E-04  1.02036461E-04  9.83321270E-05  8.89168007E-05  9.24737257E-05  9.63818614E-05  9.70567956E-05  9.97095380E-05  1.10232391E-04  1.28846803E-04  1.47970798E-04  1.60172542E-04  1.59029972E-04  1.83910904E-04
    2.03891778E-04  2.32746923E-04  2.17390277E-04  2.15033110E-04  2.46931821E-04  2.64125209E-04  3.11256892E-04  3.03726534E-04  3.20337655E-04  3.14100480E-04  2.76970115E-04  3.01020471E-04  2.67140420E-04  2.48333299E-04  2.34268110E-04  2.39990703E-04  2.80959246E-04  3.22905705E-04  3.90586190E-04  4.75225432E-04
    5.11774399E-04  5.17010729E-04  5.51410443E-04  5.61188760E-04  5.14288365E-04  3.92674203E-04  2.89254849E-04  1.88916097E-04  1.22301109E-04  8.94332275E-05  6.33614480E-05  5.68217157E-05  5.46409727E-05  4.97010106E-05  5.47147984E-05  4.36134664E-05  3.49260374E-05  2.78761736E-05  2.60468321E-05  2.27348517E-05
    2.00332036E-05  1.86212316E-05  1.64619744E-05  1.72128070E-05  1.89383545E-05  2.29094168E-05  2.97588109E-05  3.49312298E-05  4.06041484E-05  4.61557331E-05  5.47468490E-05  6.61371935E-05  8.43931157E-05  1.10696809E-04  1.48237045E-04  1.96787238E-04  2.29068494E-04  2.77559959E-04  3.35059199E-04  4.34699504E-04
    2.63821813E-04  2.34836423E-04  2.39866288E-04  2.09707133E-04  1.93265465E-04  2.22948165E-04  2.13933761E-04  1.82655142E-04  1.54317173E-04  1.42300902E-04  1.33940260E-04  1.31238401E-04  1.09899246E-04  8.53858336E-05  6.35629098E-05  4.98307024E-05  4.55271019E-05  4.25528835E-05  5.03508366E-05  5.07319792E-05
    5.69999340E-05  4.73007283E-05  4.67676208E-05  5.19039125E-05  6.16900787E-05  7.34843985E-05  6.19007287E-05  5.92729377E-05  6.37915541E-05  6.84975576E-05  7.90826904E-05  9.62065934E-05  1.09705326E-04  1.11343901E-04  1.14452584E-04  1.30193366E-04  1.49993103E-04  1.71628564E-04  1.94505071E-04  2.27146782E-04
    2.18196999E-04  2.46913932E-04  2.77629286E-04  3.15917221E-04  3.54350043E-04  3.34147222E-04  3.40730835E-04  3.08942160E-04  2.75589096E-04  2.27764493E-04  1.86702738E-04  1.96367304E-04  1.93556819E-04  2.19349919E-04  2.40490310E-04  2.42086656E-04  2.98583438E-04  3.58583041E-04  3.98013378E-04  4.21878279E-04
    4.06718911E-04  4.16842585E-04  4.27133349E-04  3.81512610E-04  2.92061667E-04  1.94778622E-04  1.48970823E-04  1.01010859E-04  8.02610029E-05  5.78759723E-05  3.92654542E-05  3.37868081E-05  3.26715889E-05  2.51394914E-05  2.38491078E-05  1.94851054E-05  1.65754596E-05  1.32681805E-05  1.44066614E-05  1.45707367E-05
    1.56539861E-05  1.69663934E-05  1.57242466E-05  1.97980786E-05  2.43214233E-05  2.65862092E-05  3.32976772E-05  4.04168526E-05  4.41903112E-05  4.85242505E-05  5.79812510E-05  8.29401305E-05  1.10934294E-04  1.37639509E-04  1.67356920E-04  2.10563050E-04  2.48777519E-04  3.29288238E-04  3.79851568E-04  4.36520047E-04
    1.87634612E-04  1.67335244E-04  1.46498328E-04  1.27292103E-04  1.27267404E-04  1.43742607E-04  1.16372953E-04  1.01926566E-04  8.41386891E-05  7.50739237E-05  6.90257589E-05  6.25301286E-05  4.62654619E-05  3.11060496E-05  2.63539287E-05  2.33762624E-05  2.04972729E-05  1.87826486E-05  2.17552491E-05  2.28525394E-05
    2.49531593E-05  2.58897480E-05  3.44808513E-05  4.33373464E-05  5.14547684E-05  6.23685922E-05  5.68655901E-05  6.05736344E-05  6.65254885E-05  7.17515386E-05  8.76212045E-05  1.05761765E-04  1.07461836E-04  1.01620471E-04  1.06216056E-04  1.18863052E-04  1.43967154E-04  1.71847931E-04  1.78660082E-04  2.04059202E-04
    2.32260419E-04  3.10937171E-04  3.57493564E-04  4.02626514E-04  3.67839366E-04  3.11304818E-04  3.09040732E-04  2.31595947E-04  1.86220339E-04  1.60458404E-04  1.53752762E-04  1.78186693E-04  1.83809781E-04  1.89667135E-04  2.09754012E-04  2.33868926E-04  2.50353715E-04  3.09304576E-04  3.09175663E-04  3.12472185E-04
    2.73873002E-04  2.44569819E-04  2.23333336E-04  1.85417538E-04  1.52161040E-04  1.09665499E-04  7.75956654E-05  5.54970962E-05  4.19242428E-05  2.90572669E-05  2.11763772E-05  1.84157265E-05  1.64257725E-05  1.27903802E-05  1.34108081E-05  1.20785819E-05  1.14251785E-05  1.15866909E-05  1.37067269E-05  1.59282879E-05
    1.81185567E-05  2.10329221E-05  2.15911457E-05  2.59836023E-05  3.20721746E-05  3.62374771E-05  4.04649122E-05  4.51398487E-05  4.90378148E-05  5.63256180E-05  7.59959373E-05  1.02942633E-04  1.32727573E-04  1.54394467E-04  1.57053107E-04  1.82363926E-04  2.20328856E-04  3.36775208E-04  4.03491818E-04  4.90890847E-04
    1.50713759E-04  1.17159780E-04  1.01275574E-04  8.08338674E-05  6.32432167E-05  6.35289843E-05  6.14688423E-05  5.96210770E-05  4.77115747E-05  3.95210454E-05  3.15721757E-05  2.66474301E-05  1.98031498E-05  1.51639675E-05  1.27370918E-05  1.09193055E-05  1.05061371E-05  1.01979516E-05  1.18312927E-05  1.60452997E-05
    2.56036826E-05  3.11467557E-05  3.82866862E-05  4.28721173E-05  5.16258137E-05  6.60462111E-05  5.86609955E-05  6.23632814E-05  6.77585425E-05  6.76741220E-05  7.52293420E-05  8.19705827E-05  8.80879504E-05  8.68815721E-05  1.04495593E-04  1.27726890E-04  1.48103110E-04  1.70167547E-04  1.83018277E-04  2.71951275E-04
    3.42061622E-04  4.00141727E-04  3.95236429E-04  3.41779924E-04  2.68179475E-04  2.05066269E-04  1.84196019E-04  1.50554331E-04  1.42905279E-04  1.32624082E-04  1.35845925E-04  1.63424798E-04  1.69769276E-04  2.02891582E-04  2.05757355E-04  2.03049522E-04  2.15469292E-04  2.19052296E-04  2.00785441E-04  1.75159464E-04
    1.44744773E-04  1.22339688E-04  1.09079902E-04  9.43543091E-05  7.51750417E-05  5.32271507E-05  4.23676874E-05  3.35308433E-05  2.51514613E-05  1.87872438E-05  1.48068645E-05  1.39090209E-05  1.49507985E-05  1.33385600E-05  1.46762290E-05  1.32886788E-05  1.35213582E-05  1.51726253E-05  1.91164717E-05  2.26840249E-05
    2.81704646E-05  3.29121104E-05  3.39377706E-05  3.95101411E-05  4.04870230E-05  4.42340755E-05  4.96226413E-05  5.60478077E-05  6.19716371E-05  7.06110409E-05  8.20420689E-05  9.21369130E-05  1.08169381E-04  1.23903228E-04  1.51993687E-04  2.05479599E-04  2.75006745E-04  3.79295195E-04  4.67115880E-04  5.79993223E-04
    7.51578753E-05  5.89509556E-05  5.28268991E-05  4.37586684E-05  4.08767605E-05  4.40594024E-05  3.84882545E-05  3.17860085E-05  2.52527999E-05  2.09401161E-05  1.66295394E-05  1.54302767E-05  1.23545477E-05  9.54961990E-06  8.83973164E-06  8.55940684E-06  8.78245435E-06  1.00336322E-05  1.71837971E-05  2.28119964E-05
    3.03223115E-05  3.16752854E-05  3.54932043E-05  4.21523948E-05  4.86896146E-05  5.27948110E-05  4.56202065E-05  5.16198961E-05  5.81107617E-05  5.45738906E-05  5.53437145E-05  6.53355047E-05  7.73090390E-05  9.05998109E-05  1.17827234E-04  1.50649723E-04  1.93885036E-04  2.57565322E-04  2.92359435E-04  3.52913679E-04
    3.78372106E-04  3.54515263E-04  3.18998567E-04  2.64816481E-04  2.05295284E-04  1.70384882E-04  1.66569911E-04  1.58345396E-04  1.64940293E-04  1.72009971E-04  1.69628810E-04  1.86648076E-04  1.99474748E-04  2.26509660E-04  2.16601608E-04  1.80219785E-04  1.61438274E-04  1.46794003E-04  1.16541331E-04  1.01207252E-04
    7.82470747E-05  6.48321684E-05  5.60644234E-05  4.76498683E-05  4.27147997E-05  3.39362163E-05  2.79017778E-05  2.05680710E-05  1.79035239E-05  1.45324777E-05  1.41387364E-05  1.37075895E-05  1.32119106E-05  1.25865106E-05  1.49408665E-05  1.50453907E-05  1.72460830E-05  2.13654362E-05  2.71007990E-05  3.13895844E-05
    3.72222654E-05  4.28947666E-05  3.91000308E-05  4.35847579E-05  4.35504416E-05  4.63257580E-05  5.49534024E-05  5.92129426E-05  6.25181437E-05  6.57445772E-05  6.88688915E-05  9.45801840E-05  1.36773140E-04  1.83042659E-04  2.45882924E-04  2.99094793E-04  3.66802126E-04  4.83423565E-04  5.48177128E-04  6.29366442E-04
    3.67316933E-05  3.81006167E-05  3.94319122E-05  3.07758312E-05  2.67180615E-05  2.64944815E-05  2.29375525E-05  2.04870452E-05  1.69694403E-05  1.31926902E-05  1.16916505E-05  1.08816414E-05  9.29845499E-06  8.96333389E-06  9.88422075E-06  1.18089406E-05  1.60438215E-05  1.89326295E-05  2.62501639E-05  2.83326434E-05
    2.95154106E-05  2.85923065E-05  3.17487421E-05  3.40272408E-05  3.42923831E-05  3.62871824E-05  3.26140898E-05  3.64854515E-05  4.13435796E-05  4.15101526E-05  4.88284448E-05  6.95639999E-05  9.21196724E-05  1.16128129E-04  1.83504479E-04  2.63995903E-04  3.29552420E-04  3.65143196E-04  3.75488843E-04  3.96681794E-04
    3.63320866E-04  3.54232916E-04  3.42551846E-04  3.09132204E-04  2.75825983E-04  2.47195578E-04  2.68206784E-04  2.77515920E-04  2.63098341E-04  2.12767323E-04  1.88381736E-04  2.09827206E-04  2.10972409E-04  1.87050628E-04  1.53079684E-04  1.14037211E-04  9.24691074E-05  8.12062259E-05  6.47862214E-05  5.65022354E-05
    4.22872870E-05  3.44171726E-05  2.84576653E-05  2.42219408E-05  2.30009116E-05  1.86683373E-05  1.61407605E-05  1.29752859E-05  1.21605025E-05  1.17292007E-05  1.07415690E-05  1.12152095E-05  1.42135512E-05  1.50990620E-05  2.02127994E-05  2.22319529E-05  2.65485974E-05  3.14526332E-05  4.10302608E-05  4.49094496E-05
    4.74203467E-05  4.85953666E-05  4.37662119E-05  4.77817589E-05  5.05978232E-05  5.26340443E-05  5.42099037E-05  5.69096945E-05  6.29014640E-05  7.40230862E-05  1.04208161E-04  1.69252701E-04  2.39461186E-04  2.71752084E-04  3.10757378E-04  3.86957626E-04  4.27182952E-04  4.88665293E-04  4.52932658E-04  4.50163282E-04
    2.70578653E-05  2.48677198E-05  2.34930767E-05  1.73163572E-05  1.53489933E-05  1.49964177E-05  1.30345217E-05  1.13625020E-05  1.03727328E-05  9.54430435E-06  9.08088135E-06  9.60300616E-06  9.94602173E-06  1.14847509E-05  1.60159051E-05  2.11906998E-05  2.46783151E-05  2.30805543E-05  2.61157292E-05  2.62089775E-05
    2.73867874E-05  2.49900758E-05  2.42114223E-05  2.40401955E-05  2.21982119E-05  2.46572180E-05  2.33420361E-05  2.76507437E-05  3.66592098E-05  5.05595808E-05  6.74034126E-05  1.01572216E-04  1.45872554E-04  1.95373092E-04  2.63180032E-04  3.30403947E-04  3.99088535E-04  4.69225524E-04  4.49967455E-04  5.04327618E-04
    5.05744712E-04  4.63532771E-04  4.56318216E-04  4.39556391E-04  3.95114746E-04  3.87007805E-04  3.96759596E-04  3.20913270E-04  2.56949702E-04  2.06113929E-04  1.83120599E-04  1.71153879E-04  1.34600801E-04  1.14847809E-04  8.88793420E-05  6.84850368E-05  6.06174987E-05  5.80797983E-05  4.88718720E-05  4.09295784E-05
    2.89612159E-05  2.22403597E-05  1.87337941E-05  1.65064717E-05  1.41220700E-05  1.14234208E-05  1.06741814E-05  1.04187111E-05  1.14526209E-05  1.13297226E-05  1.12831423E-05  1.56239819E-05  2.28132502E-05  2.50368767E-05  3.61502163E-05  4.11360082E-05  4.76264533E-05  4.95326171E-05  5.71462234E-05  5.76381437E-05
    5.45093340E-05  5.93037362E-05  5.54155240E-05  6.55019892E-05  6.73063354E-05  7.09420358E-05  7.73352317E-05  8.79197891E-05  1.20579649E-04  1.55080335E-04  2.02968489E-04  2.78195027E-04  3.73118612E-04  4.00235550E-04  3.96084810E-04  3.55545671E-04  3.27381734E-04  3.59060709E-04  3.55414506E-04  3.81843425E-04
    1.61034746E-05  1.38344272E-05  1.22182481E-05  1.04604990E-05  9.76813431E-06  9.78258752E-06  9.82282269E-06  9.24334072E-06  8.36999880E-06  8.26608661E-06  9.05013140E-06  1.19645432E-05  1.54492247E-05  1.89431240E-05  2.12136775E-05  2.22074426E-05  2.20168512E-05  1.86315937E-05  2.14435901E-05  2.33107957E-05
    2.42559292E-05  2.11066368E-05  2.17744301E-05  2.38559251E-05  2.52321622E-05  3.18868451E-05  2.98257951E-05  3.73542580E-05  5.25792882E-05  7.70754167E-05  1.11618302E-04  1.57290867E-04  2.03549114E-04  2.55075567E-04  3.34303981E-04  4.00804012E-04  4.72618243E-04  4.74315654E-04  4.26138878E-04  4.72508910E-04
    5.20516121E-04  5.18310226E-04  4.58393571E-04  4.16067936E-04  3.89631677E-04  3.66557288E-04  3.40049717E-04  2.72943587E-04  2.30514477E-04  1.67006395E-04  1.18565505E-04  9.94285200E-05  8.30181175E-05  7.24004381E-05  6.13716023E-05  4.91289511E-05  4.10546967E-05  3.36652828E-05  2.82974347E-05  2.67702831E-05
    2.16478808E-05  1.80839903E-05  1.56990972E-05  1.33234501E-05  1.18538813E-05  1.04044113E-05  1.13018569E-05  1.19367089E-05  1.47201953E-05  1.88336594E-05  2.52750247E-05  3.74466850E-05  5.10761756E-05  5.49312946E-05  6.84743403E-05  7.21363200E-05  7.54439029E-05  6.81283595E-05  6.27205554E-05  6.83083997E-05
    7.68661035E-05  8.72259602E-05  8.47696176E-05  1.04082740E-04  1.12663880E-04  1.10202585E-04  1.31595590E-04  1.63516109E-04  2.09556681E-04  2.67782074E-04  3.34978805E-04  3.87638534E-04  3.71527566E-04  3.09227956E-04  2.76057824E-04  2.55252392E-04  2.40957888E-04  3.01601155E-04  3.20467239E-04  3.55680394E-04
    1.09811451E-05  1.02473562E-05  1.00273023E-05  8.29354924E-06  8.54179719E-06  9.80059203E-06  9.96448780E-06  9.24220471E-06  9.26990889E-06  9.48391518E-06  1.12433934E-05  1.49490148E-05  1.73520472E-05  1.80088798E-05  2.04192961E-05  2.02550642E-05  2.30721073E-05  2.40505865E-05  2.97473830E-05  3.18776483E-05
    3.23995738E-05  3.30903686E-05  3.70941772E-05  4.00813048E-05  4.18573805E-05  5.07010151E-05  4.91429918E-05  6.20021291E-05  9.03416161E-05  1.33034249E-04  1.92992061E-04  2.64961444E-04  3.13026596E-04  3.43502463E-04  4.14616550E-04  4.77648896E-04  4.96103990E-04  4.83061587E-04  4.43290302E-04  4.97505742E-04
    4.19960875E-04  3.51110876E-04  3.31612709E-04  3.19901929E-04  3.04780990E-04  2.70799729E-04  2.38107327E-04  1.74468643E-04  1.38284433E-04  1.07309279E-04  7.98399630E-05  6.72569607E-05  5.27433323E-05  4.67076425E-05  3.59558181E-05  2.90254472E-05  2.72410662E-05  2.76551701E-05  2.44555492E-05  2.33741587E-05
    1.85422366E-05  1.61981126E-05  1.46540494E-05  1.29311541E-05  1.31328043E-05  1.22320062E-05  1.46503585E-05  1.94531661E-05  3.08666906E-05  4.60081325E-05  6.26383649E-05  8.16102944E-05  9.36471352E-05  8.75602290E-05  9.90923894E-05  8.62369823E-05  7.26905472E-05  6.70708997E-05  8.68537036E-05  1.10305042E-04
    1.16488561E-04  1.36544074E-04  1.32943236E-04  1.47542625E-04  1.37443403E-04  1.41258450E-04  1.56160484E-04  1.91582849E-04  2.45647530E-04  2.59470669E-04  2.59161847E-04  2.26978925E-04  1.90827860E-04  1.69448426E-04  1.72942161E-04  1.96688649E-04  2.31126096E-04  3.26130065E-04  3.65924574E-04  3.78346048E-04
    8.83715860E-06  8.33889682E-06  9.55056587E-06  8.97348274E-06  9.14957245E-06  9.23700357E-06  9.41024208E-06  8.69206399E-06  9.26896777E-06  1.16519305E-05  1.32783651E-05  1.64970665E-05  1.99939925E-05  2.35103304E-05  3.14665310E-05  3.89815024E-05  4.77281540E-05  4.79620800E-05  5.58409525E-05  6.31524066E-05
    7.44206714E-05  7.09773965E-05  6.73875295E-05  7.26725143E-05  7.67292898E-05  7.91375027E-05  7.53096132E-05  9.75532654E-05  1.41427205E-04  2.12030387E-04  2.88189447E-04  3.87718648E-04  4.70908770E-04  4.67530418E-04  4.80137509E-04  4.66471194E-04  4.88606128E-04  4.78822831E-04  4.28135446E-04  4.19952871E-04
    3.57107521E-04  3.00743639E-04  2.81576197E-04  2.58324885E-04  2.39320145E-04  2.23587566E-04  1.98392455E-04  1.44502737E-04  1.14420500E-04  9.05174304E-05  6.49680052E-05  4.76614440E-05  3.43614115E-05  3.14991125E-05  3.15555511E-05  2.76066743E-05  2.51996815E-05  2.49086842E-05  2.30381448E-05  2.21750094E-05
    1.72190847E-05  1.40142147E-05  1.34965310E-05  1.26600525E-05  1.49520527E-05  1.89422377E-05  2.93210640E-05  4.91346698E-05  8.35900814E-05  1.00725959E-04  1.16170996E-04  1.27821804E-04  1.44659409E-04  1.08045984E-04  9.91376095E-05  9.04628113E-05  8.98463532E-05  9.45729242E-05  1.13743164E-04  1.13681557E-04
    1.12843376E-04  1.13502695E-04  9.97439968E-05  1.14866748E-04  1.14264938E-04  1.20245299E-04  1.42226018E-04  1.56788489E-04  1.66747814E-04  1.52628490E-04  1.36401113E-04  1.29257276E-04  1.33981365E-04  1.43239196E-04  1.67638435E-04  2.05902925E-04  2.50216148E-04  3.11102809E-04  3.03577955E-04  2.95123462E-04
    1.03778357E-05  1.09567511E-05  1.13669758E-05  8.79267314E-06  8.59090712E-06  9.47583961E-06  1.03097077E-05  1.13118103E-05  1.20368380E-05  1.43379582E-05  1.75719050E-05  2.47121132E-05  3.16538417E-05  3.82243183E-05  5.39315203E-05  6.91021168E-05  7.85600626E-05  8.20831899E-05  1.04113600E-04  1.01032370E-04
    9.36182889E-05  8.55593980E-05  9.78412891E-05  1.16332015E-04  1.15996802E-04  1.25308805E-04  1.30206907E-04  1.83963881E-04  2.55823036E-04  3.74121541E-04  4.43763174E-04  4.52084344E-04  4.37736550E-04  4.24603470E-04  4.14846916E-04  4.43734763E-04  4.98168096E-04  4.85372823E-04  4.25889695E-04  3.85882112E-04