# File generated by Flopy version 3.7.0 on 07/22/2024 at 15:56:33.
BEGIN options
END options

BEGIN griddata
  strt
    INTERNAL  FACTOR  1.0
        15.00000000      15.00000000      15.00000000      15.00000000      15.00000000      15.00000000      15.00000000      15.00000000      15.00000000      15.00000000      15.00000000      15.00000000      15.00000000      15.00000000      15.00000000      15.00000000      15.00000000      15.00000000      15.00000000      15.00000000
        15.00000000      15.00000000      15.00000000      15.00000000      15.00000000      15.00000000      15.00000000      15.00000000      15.00000000      15.00000000      15.00000000      15.00000000      15.00000000      15.00000000      15.00000000      15.00000000      15.00000000      15.00000000      15.00000000      15.00000000
        15.00000000      15.00000000      15.00000000      15.00000000      15.00000000      15.00000000      15.00000000      15.00000000      15.00000000      15.00000000      15.00000000      15.00000000      15.00000000      15.00000000      15.00000000      15.00000000      15.00000000      15.00000000      15.00000000      15.00000000
        15.00000000      15.00000000      15.00000000      15.00000000      15.00000000      15.00000000      15.00000000      15.00000000      15.00000000      15.00000000      15.00000000      15.00000000      15.00000000      15.00000000      15.00000000      15.00000000      15.00000000      15.00000000      15.00000000      15.00000000
        15.00000000      15.00000000      15.00000000      15.00000000      15.00000000      15.00000000      15.00000000      15.00000000      15.00000000      15.00000000      15.00000000      15.00000000      15.00000000      15.00000000      15.00000000      15.00000000      15.00000000      15.00000000      15.00000000      15.00000000
        15.14373748      15.14889470      15.15583183      15.16154716      15.16177732      15.15751502      15.14979025      15.14236681      15.13777673      15.13583996      15.13250448      15.12520743      15.11590897      15.10584586      15.09652195      15.08741969      15.07867508      15.07032621      15.06193449      15.05434556
        15.04722499      15.04122860      15.03587128      15.03089698      15.02660117      15.02339650      15.02163977      15.02079956      15.02035049      15.01971067      15.01899397      15.01829905      15.01807261      15.01837680      15.01929614      15.02058191      15.02186624      15.02380331      15.02684948      15.03137177
        15.03704569      15.04309003      15.04831846      15.05276695      15.05690887      15.06055893      15.06468546      15.06846705      15.07135990      15.07306477      15.07371594      15.07515369      15.07963572      15.08526023      15.09025497      15.09417481      15.09634224      15.09671265      15.09590730      15.09262294
        15.08803166      15.08281439      15.07678281      15.06996895      15.06447121      15.05934365      15.05443158      15.05062652      15.04964220      15.05243768      15.05870587      15.06707648      15.07750545      15.08912963      15.10121140      15.11207919      15.12116749      15.12906435      15.13439987      15.13828088
        15.14254729      15.14950237      15.16011146      15.17389255      15.18945108      15.20867221      15.22801373      15.24611337      15.25848739      15.25946563      15.25072185      15.23652674      15.22091190      15.20355337      15.18563648      15.17081125      15.15537894      15.14060693      15.13166182      15.12853937
        15.23168760      15.23644995      15.24220842      15.24580541      15.24447144      15.23853184      15.22889464      15.21769393      15.20786351      15.19970326      15.19050255      15.17958040      15.16807197      15.15687824      15.14603174      15.13483237      15.12374858      15.11289579      15.10189989      15.09119584
        15.08129144      15.07184613      15.06347750      15.05618066      15.05006800      15.04562925      15.04265330      15.04062628      15.03907078      15.03753266      15.03641710      15.03591776      15.03603709      15.03690596      15.03841432      15.04046098      15.04303712      15.04726653      15.05359092      15.06186916
        15.07130306      15.08095494      15.08946524      15.09700246      15.10383012      15.10998827      15.11626734      15.12209943      15.12740489      15.13221474      15.13683681      15.14247686      15.14929688      15.15573599      15.16036808      15.16222130      15.16220931      15.16017718      15.15612928      15.14920785
        15.14123479      15.13314168      15.12499276      15.11663769      15.10898169      15.10187572      15.09596261      15.09266321      15.09377308      15.10017439      15.11063681      15.12478153      15.14217353      15.16206972      15.18285982      15.20152569      15.21737536      15.22865206      15.23615648      15.24301061
        15.25221305      15.26681368      15.28863467      15.31715114      15.34893853      15.38246236      15.41357917      15.43909009      15.45196343      15.44725435      15.43239980      15.40917297      15.38336090      15.35787411      15.33228025      15.31068857      15.29298954      15.27947407      15.27103744      15.26860693
        15.28303145      15.28475722      15.28620124      15.28585753      15.28294201      15.27590153      15.26526591      15.25242733      15.23999046      15.22881769      15.21782698      15.20664741      15.19557265      15.18484150      15.17424940      15.16320591      15.15194983      15.14056614      15.12918043      15.11777870
        15.10695836      15.09645073      15.08678689      15.07843585      15.07138537      15.06604777      15.06194170      15.05850395      15.05555688      15.05347986      15.05245931      15.05262559      15.05375449      15.05526407      15.05722713      15.06016925      15.06475872      15.07156643      15.08059824      15.09097024
        15.10214712      15.11341917      15.12374835      15.13306722      15.14185075      15.15081045      15.15994204      15.16867401      15.17627507      15.18347120      15.19045138      15.19700144      15.20262392      15.20715328      15.20957218      15.20963486      15.20786067      15.20385669      15.19735540      15.18960982
        15.18138141      15.17269166      15.16354673      15.15406701      15.14495561      15.13746786      15.13277497      15.13191204      15.13604280      15.14538127      15.15997520      15.17956193      15.20137637      15.22435211      15.24762278      15.26909866      15.28728642      15.30057763      15.31129024      15.32371716
        15.34105111      15.36604007      15.39853955      15.43683660      15.47661640      15.51399905      15.54562516      15.56746351      15.57695228      15.57061062      15.55409753      15.53015921      15.50221400      15.47433313      15.44813881      15.42752651      15.41244793      15.40249932      15.39496932      15.39177749
        15.30692958      15.30685220      15.30575366      15.30298333      15.29821026      15.29037501      15.27940566      15.26664042      15.25416465      15.24281091      15.23235269      15.22215080      15.21201547      15.20180646      15.19180183      15.18141127      15.17083514      15.15985081      15.14875830      15.13786307
        15.12731612      15.11716120      15.10741784      15.09858627      15.09104586      15.08466600      15.07940779      15.07496584      15.07143994      15.06941474      15.06895609      15.06987286      15.07162234      15.07387756      15.07687154      15.08126553      15.08811860      15.09716451      15.10734627      15.11806823
        15.12939120      15.14066073      15.15143386      15.16224584      15.17368669      15.18526284      15.19633920      15.20614232      15.21434823      15.22139913      15.22785146      15.23345465      15.23796953      15.24140785      15.24260537      15.24160078      15.23873392      15.23419820      15.22838972      15.22184568
        15.21441226      15.20622159      15.19754720      15.18907784      15.18129006      15.17532320      15.17267072      15.17401856      15.18048130      15.19218579      15.20927975      15.23029113      15.25187586      15.27365026      15.29549978      15.31719476      15.33672692      15.35365499      15.36973127      15.38865112
        15.41242746      15.44132758      15.47567593      15.51523890      15.55533130      15.59093926      15.61921572      15.63806340      15.64561039      15.64184196      15.62925216      15.61081578      15.58733773      15.56173101      15.53876653      15.52023394      15.50698470      15.49670364      15.48835075      15.48377394
        15.31497283      15.31386240      15.31117117      15.30673636      15.30069008      15.29289160      15.28290952      15.27185366      15.26074271      15.25032962      15.24068194      15.23132657      15.22211965      15.21273637      15.20337750      15.19380277      15.18397816      15.17398040      15.16366955      15.15362862
        15.14401912      15.13462474      15.12551266      15.11682934      15.10892954      15.10184363      15.09562508      15.09071350      15.08747291      15.08597197      15.08596123      15.08726187      15.08932642      15.09235229      15.09681393      15.10326556      15.11208068      15.12202608      15.13193996      15.14233719
        15.15339777      15.16487601      15.17664913      15.18898460      15.20174901      15.21369568      15.22417282      15.23287160      15.24005047      15.24623890      15.25177599      15.25667360      15.26033365      15.26255753      15.26302835      15.26173901      15.25932595      15.25616420      15.25224819      15.24725625
        15.24120948      15.23487236      15.22864034      15.22264600      15.21762230      15.21479549      15.21478640      15.21824550      15.22554445      15.23748635      15.25339129      15.27217875      15.29186914      15.31177506      15.33274653      15.35554182      15.37830047      15.39932197      15.41920030      15.44014272
        15.46378668      15.49117929      15.52405882      15.56142442      15.59812464      15.62982645      15.65505136      15.67319136      15.68224388      15.68265044      15.67498884      15.66179640      15.64454704      15.62406215      15.60345460      15.58562690      15.57232115      15.56192191      15.55401383      15.54938563
        15.31469339      15.31245102      15.30859378      15.30347234      15.29750231      15.29047189      15.28218629      15.27330703      15.26397378      15.25472591      15.24603802      15.23761105      15.22919326      15.22061555      15.21196836      15.20321211      15.19427359      15.18522401      15.17590186      15.16666395
        15.15794199      15.14936315      15.14102015      15.13300115      15.12524789      15.11800211      15.11152365      15.10664728      15.10381986      15.10255177      15.10262896      15.10368623      15.10587773      15.10987160      15.11632846      15.12501931      15.13498510      15.14487234      15.15456765      15.16512710
        15.17670118      15.18881131      15.20098831      15.21336158      15.22511704      15.23532115      15.24394818      15.25110331      15.25698717      15.26221466      15.26698671      15.27118807      15.27406516      15.27554201      15.27599012      15.27553620      15.27419550      15.27240826      15.26987685      15.26643628
        15.26238845      15.25851822      15.25525956      15.25219347      15.25016125      15.25029985      15.25269788      15.25774990      15.26540004      15.27642462      15.29060737      15.30767432      15.32617722      15.34576278      15.36782188      15.39303871      15.41868689      15.44173964      15.46228629      15.48138660
        15.50278651      15.52843724      15.55864797      15.59133425      15.62273989      15.65143699      15.67559221      15.69454970      15.70593812      15.70822308      15.70265946      15.69200019      15.67812764      15.66143153      15.64357993      15.62723006      15.61407175      15.60441726      15.59716241      15.59305929
        15.31014045      15.30718040      15.30304873      15.29818216      15.29287381      15.28703913      15.28063164      15.27363096      15.26598122      15.25803309      15.25021780      15.24254668      15.23480147      15.22693493      15.21891466      15.21070924      15.20244571      15.19403180      15.18545453      15.17688344
        15.16891484      15.16143123      15.15419101      15.14713197      15.14019767      15.13351016      15.12760209      15.12313674      15.12044778      15.11925796      15.11942154      15.12057548      15.12336349      15.12866364      15.13669199      15.14652240      15.15691906      15.16656411      15.17631129      15.18720381
        15.19891509      15.21063076      15.22192740      15.23296661      15.24260297      15.25053676      15.25723449      15.26287774      15.26770473      15.27227368      15.27662295      15.28034585      15.28308403      15.28479179      15.28572276      15.28611518      15.28579456      15.28483253      15.28341715      15.28184994
        15.28021072      15.27872894      15.27749644      15.27667565      15.27669013      15.27840940      15.28219488      15.28809322      15.29622357      15.30688763      15.32062891      15.33744626      15.35661702      15.37780198      15.40133966      15.42767049      15.45422437      15.47725375      15.49651311      15.51407004
        15.53373632      15.55687809      15.58319668      15.61067543      15.63810044      15.66498230      15.68848260      15.70733827      15.71944027      15.72252967      15.71842082      15.70932783      15.69750902      15.68312209      15.66729598      15.65199236      15.63909511      15.62988973      15.62336851      15.61974889
        15.30457478      15.30165148      15.29789627      15.29370707      15.28921510      15.28460881      15.27964767      15.27397712      15.26761170      15.26081968      15.25383758      15.24682082      15.23960994      15.23215786      15.22465132      15.21688447      15.20898492      15.20099299      15.19290609      15.18491614
        15.17761221      15.17109615      15.16498217      15.15910215      15.15335796      15.14791599      15.14334519      15.13973271      15.13734141      15.13647292      15.13701528      15.13921489      15.14370789      15.15060315      15.15953899      15.16949101      15.17895856      15.18768845      15.19697014      15.20714038
        15.21764538      15.22782225      15.23757455      15.24645783      15.25384746      15.25995143      15.26526559      15.27001053      15.27441193      15.27875331      15.28297366      15.28679867      15.28995314      15.29219738      15.29380325      15.29500288      15.29567513      15.29572839      15.29560384      15.29547401
        15.29533362      15.29533558      15.29523856      15.29558611      15.29664376      15.29924158      15.30362447      15.30978655      15.31823351      15.32958048      15.34444395      15.36243429      15.38282881      15.40479288      15.42874322      15.45485072      15.48082685      15.50342805      15.52272552      15.54026698
        15.55802445      15.57809216      15.60036225      15.62351979      15.64784452      15.67305543      15.69562763      15.71335106      15.72542032      15.72967125      15.72699208      15.71908778      15.70838771      15.69539237      15.68098750      15.66667524      15.65408201      15.64480296      15.63874167      15.63558780
        15.29965699      15.29724367      15.29412555      15.29074315      15.28721062      15.28361148      15.27955926      15.27478605      15.26931686      15.26334782      15.25710210      15.25060598      15.24391281      15.23699531      15.22986022      15.22244375      15.21478709      15.20701351      15.19908453      15.19133128
        15.18500689      15.17953647      15.17460507      15.17005674      15.16581075      15.16199052      15.15893197      15.15647952      15.15486519      15.15468915      15.15642482      15.16045994      15.16674814      15.17482345      15.18391144      15.19253265      15.19998354      15.20722605      15.21501669      15.22325357
        15.23174213      15.24013298      15.24808543      15.25504651      15.26094361      15.26606701      15.27076322      15.27522422      15.27953910      15.28398475      15.28843382      15.29254622      15.29610430      15.29899992      15.30139046      15.30340101      15.30485933      15.30575899      15.30639003      15.30702774
        15.30772009      15.30845211      15.30950980      15.31132189      15.31391562      15.31738103      15.32222595      15.32889897      15.33815877      15.35058154      15.36597886      15.38361929      15.40342311      15.42519216      15.44900387      15.47422935      15.49926589      15.52235886      15.54274602      15.56068958
        15.57714806      15.59425505      15.61270161      15.63223604      15.65327127      15.67570319      15.69675606      15.71345565      15.72534131      15.73084765      15.72940351      15.72236943      15.71239415      15.70045906      15.68723118      15.67394397      15.66211282      15.65315901      15.64748433      15.64477000
        15.29605556      15.29421821      15.29175895      15.28914764      15.28644379      15.28351382      15.28005219      15.27600664      15.27133590      15.26600866      15.26020663      15.25417334      15.24799201      15.24156723      15.23483022      15.22779057      15.22045229      15.21267118      15.20425187      15.19560741
        15.19129251      15.18752698      15.18405676      15.18097187      15.17834450      15.17623987      15.17454743      15.17346640      15.17316117      15.17435567      15.17768033      15.18298042      15.18976817      15.19752669      15.20508875      15.21136458      15.21681697      15.22245419      15.22852730      15.23495562
        15.24182959      15.24881385      15.25539025      15.26132222      15.26659404      15.27133006      15.27582601      15.28026767      15.28471045      15.28928245      15.29389191      15.29830296      15.30234151      15.30592018      15.30898333      15.31153821      15.31352891      15.31498439      15.31606848      15.31729536
        15.31882368      15.32076511      15.32368332      15.32756694      15.33186186      15.33658003      15.34227284      15.34981773      15.35959764      15.37164382      15.38563922      15.40163992      15.42009227      15.44096454      15.46400335      15.48826838      15.51274318      15.53622992      15.55752380      15.57615703
        15.59129821      15.60503884      15.61953108      15.63571141      15.65334582      15.67238031      15.69070101      15.70615683      15.71747478      15.72395225      15.72381346      15.71777246      15.70895328      15.69843808      15.68666361      15.67467182      15.66400184      15.65572742      15.65043641      15.64806042
        15.29390793      15.29251992      15.29063382      15.28862709      15.28642796      15.28393089      15.28097525      15.27749158      15.27343344      15.26868786      15.26334175      15.25767871      15.25190569      15.24599030      15.23971987      15.23304801      15.22603632      15.21830137      15.20884997      15.19465325
        15.19700524      15.19582197      15.19392537      15.19221688      15.19092723      15.19024772      15.18990227      15.19026610      15.19149227      15.19399286      15.19800537      15.20319021      15.20921486      15.21532256      15.22049807      15.22477213      15.22891199      15.23347737      15.23848639      15.24391313
        15.24980807      15.25592049      15.26177886      15.26715973      15.27210889      15.27663429      15.28099804      15.28531338      15.28969274      15.29430982      15.29908957      15.30383355      15.30838623      15.31263445      15.31640900      15.31966202      15.32233500      15.32456250      15.32647833      15.32863777
        15.33142221      15.33506012      15.33967896      15.34502456      15.35065044      15.35635708      15.36257502      15.37028910      15.37991431      15.39078625      15.40289376      15.41714906      15.43402147      15.45386545      15.47604767      15.49922806      15.52252753      15.54522816      15.56695499      15.58560361
        15.59932216      15.60977567      15.62062622      15.63331454      15.64732173      15.66232180      15.67708748      15.69055999      15.70044775      15.70645195      15.70766344      15.70353445      15.69655129      15.68770611      15.67830636      15.66883641      15.66002460      15.65271464      15.64789572      15.64579398
        15.29287968      15.29186823      15.29042114      15.28876863      15.28687891      15.28465637      15.28203456      15.27898584      15.27541880      15.27123173      15.26646635      15.26134363      15.25602207      15.25054072      15.24485362      15.23881262      15.23244674      15.22562814      15.21813041      15.21041118
        15.20808198      15.20640694      15.20498515      15.20416540      15.20400905      15.20432610      15.20503655      15.20630349      15.20834851      15.21130759      15.21508742      15.21958399      15.22439875      15.22867144      15.23216451      15.23542062      15.23898798      15.24289267      15.24717942      15.25191022
        15.25719972      15.26275000      15.26809306      15.27303779      15.27755389      15.28163306      15.28564942      15.28976000      15.29409333      15.29883912      15.30383889      15.30895784      15.31411845      15.31915652      15.32390741      15.32800133      15.33168891      15.33527833      15.33866382      15.34215815
        15.34638393      15.35138935      15.35686238      15.36251053      15.36861432      15.37465277      15.38101044      15.38846031      15.39726185      15.40685245      15.41744407      15.43024920      15.44587459      15.46446441      15.48498602      15.50589764      15.52693410      15.54854779      15.56992584      15.58787540
        15.60020236      15.60814446      15.61574289      15.62472470      15.63482077      15.64545202      15.65612424      15.66655303      15.67446772      15.67938503      15.68155997      15.67948277      15.67476258      15.66875233      15.66260211      15.65614941      15.64963948      15.64386633      15.63997244      15.63826488
        15.29266206      15.29187563      15.29067476      15.28921453      15.28753175      15.28558249      15.28323558      15.28048161      15.27731777      15.27366753      15.26949936      15.26497969      15.26028476      15.25541860      15.25048249      15.24546726      15.24037121      15.23507256      15.22961871      15.22452110
        15.22134095      15.21917323      15.21778427      15.21723616      15.21750710      15.21820787      15.21927765      15.22083807      15.22325235      15.22629442      15.22980325      15.23345745      15.23688340      15.23975120      15.24230086      15.24501437      15.24819075      15.25169211      15.25551767      15.25987255
        15.26478340      15.26975323      15.27434575      15.27848516      15.28229015      15.28593283      15.28973625      15.29377151      15.29822737      15.30324817      15.30853519      15.31406589      15.31990525      15.32591622      15.33171499      15.33702121      15.34236314      15.34777047      15.35277955      15.35745664
        15.36261773      15.36818929      15.37368283      15.37903497      15.38486446      15.39082031      15.39687817      15.40344356      15.41097404      15.41956671      15.42901577      15.44046113      15.45459045      15.47115835      15.48924130      15.50781862      15.52666250      15.54623599      15.56597769      15.58261175
        15.59397908      15.60052441      15.60554200      15.61117840      15.61808037      15.62550050      15.63289028      15.64026125      15.64652880      15.65084870      15.65336984      15.65271316      15.64975317      15.64630715      15.64263694      15.63874491      15.63475925      15.63129075      15.62882314      15.62774370
        15.29288829      15.29224128      15.29120886      15.28992061      15.28841637      15.28668902      15.28460750      15.28213549      15.27934581      15.27617444      15.27256624      15.26868068      15.26475381      15.26075801      15.25683018      15.25301813      15.24936532      15.24577412      15.24213069      15.23853581
        15.23557680      15.23330189      15.23168705      15.23070962      15.23048097      15.23099481      15.23217301      15.23415437      15.23681955      15.23974963      15.24273424      15.24538781      15.24758803      15.24957671      15.25162556      15.25400996      15.25682889      15.26003289      15.26366256      15.26769273
        15.27194446      15.27594985      15.27959143      15.28302022      15.28637667      15.28979166      15.29349871      15.29770704      15.30251187      15.30785741      15.31346297      15.31952049      15.32625534      15.33346740      15.34090581      15.34824617      15.35529289      15.36193443      15.36807705      15.37360380
        15.37884555      15.38406378      15.38929048      15.39423287      15.39924664      15.40457399      15.40983299      15.41527623      15.42177181      15.42941004      15.43775630      15.44764284      15.45980125      15.47417164      15.49003344      15.50651767      15.52332446      15.54058139      15.55794485      15.57272031
        15.58294660      15.58873959      15.59209588      15.59578404      15.60059766      15.60611554      15.61173668      15.61723435      15.62212411      15.62560123      15.62784365      15.62826045      15.62692125      15.62530202      15.62354102      15.62184076      15.62013673      15.61863996      15.61702444      15.61616846
        15.29338396      15.29287256      15.29200064      15.29088331      15.28954649      15.28802167      15.28626987      15.28416878      15.28173077      15.27896020      15.27591847      15.27267101      15.26942271      15.26633670      15.26339350      15.26062085      15.25802877      15.25558802      15.25316094      15.25072433
        15.24852721      15.24656823      15.24474284      15.24329083      15.24250515      15.24278682      15.24420080      15.24647804      15.24903084      15.25152616      15.25381824      15.25571208      15.25725749      15.25878680      15.26051042      15.26246678      15.26478665      15.26760856      15.27071460      15.27403622
        15.27740259      15.28063700      15.28375794      15.28684757      15.29001481      15.29344557      15.29738798      15.30200453      15.30722125      15.31285852      15.31898584      15.32596879      15.33395274      15.34262956      15.35166295      15.36056114      15.36868399      15.37644308      15.38364328      15.38952852
        15.39427789      15.39877559      15.40342245      15.40764267      15.41183028      15.41632704      15.42069631      15.42513817      15.43045147      15.43697212      15.44407212      15.45209113      15.46191610      15.47397837      15.48791690      15.50277273      15.51783601      15.53291590      15.54774704      15.56076721
        15.56980062      15.57469704      15.57713941      15.57980942      15.58327518      15.58766704      15.59214523      15.59654047      15.60054395      15.60347691      15.60572138      15.60720640      15.60768008      15.60782641      15.60778185      15.60730386      15.60663469      15.60563255      15.60433098      15.60332315
        15.29397641      15.29360600      15.29292611      15.29201880      15.29090692      15.28962221      15.28813851      15.28643299      15.28448203      15.28219158      15.27960479      15.27687115      15.27415839      15.27165645      15.26937758      15.26734515      15.26549732      15.26381728      15.26223872      15.26066095
        15.25910396      15.25751238      15.25595324      15.25465222      15.25396324      15.25436626      15.25597584      15.25811467      15.26011914      15.26181851      15.26332259      15.26465900      15.26592386      15.26720287      15.26855093      15.27004810      15.27193996      15.27408199      15.27633651      15.27890152
        15.28167344      15.28448510      15.28737602      15.29038403      15.29359777      15.29723059      15.30157532      15.30670571      15.31236890      15.31850761      15.32557551      15.33376555      15.34296247      15.35278066      15.36300933      15.37325176      15.38291220      15.39172533      15.39901434      15.40440575
        15.40836065      15.41180590      15.41548801      15.41909574      15.42264736      15.42625519      15.42988962      15.43338072      15.43739595      15.44246152      15.44792984      15.45394759      15.46148847      15.47125358      15.48313143      15.49642337      15.50983115      15.52292950      15.53542724      15.54653435
        15.55443269      15.55904622      15.56142020      15.56325555      15.56567850      15.56889781      15.57240883      15.57611748      15.58005547      15.58338495      15.58634034      15.58907579      15.59110202      15.59226928      15.59297164      15.59296412      15.59255342      15.59170826      15.59073969      15.58983822
        15.29454857      15.29430111      15.29382192      15.29313087      15.29224446      15.29121389      15.29003658      15.28867934      15.28714165      15.28534657      15.28326261      15.28098684      15.27871647      15.27658913      15.27476940      15.27326685      15.27205538      15.27096178      15.26988424      15.26881944
        15.26764348      15.26634015      15.26521026      15.26441981      15.26424635      15.26496266      15.26655330      15.26823954      15.26947899      15.27044679      15.27131338      15.27223622      15.27325100      15.27426516      15.27530531      15.27645618      15.27782119      15.27929813      15.28106299      15.28318402