# File generated by Flopy version 3.7.0 on 08/02/2024 at 15:20:06.
BEGIN options
END options

BEGIN griddata
  strt
    INTERNAL  FACTOR  1.0
        15.00000000      15.00000000      15.00000000      15.00000000      15.00000000      15.00000000      15.00000000      15.00000000      15.00000000      15.00000000      15.00000000      15.00000000      15.00000000      15.00000000      15.00000000      15.00000000      15.00000000      15.00000000      15.00000000      15.00000000
        15.00000000      15.00000000      15.00000000      15.00000000      15.00000000      15.00000000      15.00000000      15.00000000      15.00000000      15.00000000      15.00000000      15.00000000      15.00000000      15.00000000      15.00000000      15.00000000      15.00000000      15.00000000      15.00000000      15.00000000
        15.00000000      15.00000000      15.00000000      15.00000000      15.00000000      15.00000000      15.00000000      15.00000000      15.00000000      15.00000000      15.00000000      15.00000000      15.00000000      15.00000000      15.00000000      15.00000000      15.00000000      15.00000000      15.00000000      15.00000000
        15.00000000      15.00000000      15.00000000      15.00000000      15.00000000      15.00000000      15.00000000      15.00000000      15.00000000      15.00000000      15.00000000      15.00000000      15.00000000      15.00000000      15.00000000      15.00000000      15.00000000      15.00000000      15.00000000      15.00000000
        15.00000000      15.00000000      15.00000000      15.00000000      15.00000000      15.00000000      15.00000000      15.00000000      15.00000000      15.00000000      15.00000000      15.00000000      15.00000000      15.00000000      15.00000000      15.00000000      15.00000000      15.00000000      15.00000000      15.00000000
        15.04301759      15.04212151      15.04170692      15.04319727      15.04700966      15.05139250      15.05632509      15.06219858      15.06709331      15.07095840      15.07168428      15.07235420      15.07349670      15.07239952      15.07178889      15.07299947      15.07268378      15.07218564      15.07208260      15.07190618
        15.07242930      15.07484876      15.07489063      15.07542797      15.07651531      15.07735196      15.08237965      15.09204675      15.10150877      15.11316653      15.12350936      15.13243649      15.14063996      15.15127162      15.16346326      15.17911205      15.19769845      15.21184414      15.22139793      15.21751599
        15.20054418      15.18063557      15.16505822      15.15914207      15.15899219      15.15441950      15.15042149      15.15000388      15.14998290      15.15497087      15.15975995      15.16303532      15.17172656      15.18256405      15.19363860      15.19828629      15.20000798      15.20277499      15.20048409      15.19771195
        15.19781736      15.19166843      15.18480484      15.18321038      15.19034679      15.20178731      15.21539565      15.23081381      15.25060379      15.26351967      15.27380805      15.29209624      15.31616387      15.32717680      15.33340327      15.33357083      15.33255165      15.32471418      15.31419948      15.30866550
        15.29062949      15.26711045      15.25882846      15.26349053      15.26579510      15.26238508      15.25134507      15.24105044      15.23137458      15.22688666      15.22830735      15.23197492      15.23836118      15.24537198      15.25273480      15.26477917      15.26590627      15.26096671      15.25625158      15.24951455
        15.08924327      15.08881941      15.08824806      15.08949638      15.09453651      15.10032197      15.10717881      15.11488695      15.12240212      15.12866287      15.13240514      15.13532888      15.13806673      15.13982910      15.14071695      15.14269599      15.14476472      15.14648423      15.14785223      15.14970006
        15.15144068      15.15258637      15.15210965      15.15093826      15.15277524      15.15644912      15.16452100      15.17787715      15.19206301      15.20846707      15.22710162      15.24383405      15.26081688      15.28224922      15.30541241      15.32999724      15.36183309      15.38980752      15.41135461      15.41316016
        15.39265074      15.36056972      15.32924139      15.31252231      15.30963412      15.30552295      15.29686989      15.29296349      15.29502217      15.29877580      15.30527636      15.31145588      15.32317474      15.33822752      15.35503344      15.36805338      15.37488072      15.37916486      15.37904061      15.37454556
        15.37267101      15.36784657      15.35719336      15.35535684      15.36236390      15.37862432      15.39826995      15.42301462      15.45470835      15.48224563      15.50305512      15.52558036      15.55424682      15.57559955      15.59088981      15.59324485      15.59327392      15.58951344      15.58229671      15.57422159
        15.55833226      15.52671930      15.50419646      15.50453980      15.50747420      15.50858591      15.49423983      15.47792068      15.46187838      15.45079514      15.45224646      15.46159762      15.47218916      15.48296803      15.49510783      15.51480256      15.52023185      15.51630832      15.51304711      15.50812829
        15.13634322      15.13705236      15.13691358      15.13769661      15.14168788      15.14694168      15.15419999      15.16244160      15.17221659      15.18031193      15.18738795      15.19324519      15.19823641      15.20303171      15.20700135      15.21022043      15.21552619      15.22195428      15.22717234      15.23167842
        15.23489172      15.23509662      15.23295903      15.23100665      15.23092185      15.23647363      15.24538590      15.25982357      15.27712942      15.29504147      15.31754024      15.34165889      15.36904783      15.39928372      15.43131174      15.46548883      15.50599700      15.54617756      15.57766219      15.58890283
        15.57405623      15.53760702      15.49868528      15.47029265      15.45916133      15.45298842      15.44312901      15.43466369      15.43392975      15.43632845      15.44178846      15.44748721      15.45782010      15.47377437      15.49286101      15.51290536      15.52642468      15.53393382      15.53781217      15.53620845
        15.53333065      15.52953170      15.52116492      15.51825584      15.52377682      15.53922780      15.56121487      15.58859842      15.62399560      15.66054622      15.69442149      15.72220608      15.74663429      15.77239556      15.79321186      15.80275277      15.80301036      15.80554945      15.80444244      15.80169542
        15.79093370      15.76527724      15.73605759      15.72810235      15.73165738      15.73408838      15.72412092      15.70609612      15.68689135      15.66983542      15.66555598      15.67871864      15.69300541      15.70847224      15.72480021      15.74461312      15.75905844      15.76047412      15.75805955      15.75651469
        15.18347235      15.18470740      15.18512201      15.18620386      15.18924356      15.19395775      15.20037270      15.20905917      15.21899780      15.22924983      15.23915665      15.24761542      15.25507600      15.26192302      15.26885821      15.27550835      15.28347171      15.29393361      15.30414165      15.31200444
        15.31658162      15.31767071      15.31634407      15.31513872      15.31381116      15.31881420      15.32737508      15.34092004      15.35907557      15.37781943      15.40140707      15.43057915      15.46541013      15.50234388      15.54149445      15.58421119      15.63109680      15.68059164      15.72022514      15.74255141
        15.73808277      15.70635864      15.66542562      15.63008239      15.60760842      15.59609496      15.58663878      15.57656260      15.56750283      15.56603407      15.56890702      15.57285795      15.58098725      15.59430894      15.61277358      15.63487803      15.65407224      15.66835104      15.67731063      15.68110306
        15.68017971      15.67761517      15.67284346      15.67082706      15.67453247      15.68743112      15.70785049      15.73596846      15.76950989      15.80943743      15.85173681      15.88605425      15.91037262      15.93643219      15.95983044      15.97467696      15.97873897      15.98381751      15.98904872      15.98989784
        15.98551238      15.97154682      15.94918453      15.93450605      15.93331170      15.93490605      15.93000172      15.91457492      15.89747155      15.87780812      15.86674650      15.87471959      15.89233793      15.91162942      15.93130122      15.95012360      15.97188924      15.98407336      15.98650468      15.98576979
        15.23111234      15.23162167      15.23181155      15.23357076      15.23588234      15.24061835      15.24684363      15.25580390      15.26560789      15.27702051      15.28832382      15.29898208      15.30785599      15.31589612      15.32468870      15.33488288      15.34617082      15.35932138      15.37328244      15.38541322
        15.39363106      15.39741709      15.40005638      15.40033706      15.40013020      15.40454818      15.41250512      15.42465200      15.44090824      15.46017882      15.48312648      15.51458692      15.55160339      15.59336432      15.63812656      15.68625074      15.73912243      15.79399871      15.84145161      15.87491683
        15.88382261      15.86592462      15.82701679      15.78721775      15.75569603      15.73717887      15.72534221      15.71457572      15.69921371      15.68903025      15.68643022      15.68972132      15.69536571      15.70465149      15.71870163      15.73966852      15.76174079      15.78179554      15.79745781      15.80793871
        15.81080330      15.81013845      15.80822694      15.81034240      15.81550040      15.82653455      15.84295709      15.86768261      15.89893647      15.93871502      15.98310560      16.02208678      16.05224334      16.07661582      16.09926522      16.11550121      16.12478426      16.13081717      16.13850225      16.14373859
        16.14586259      16.14298807      16.13157581      16.11921160      16.11483270      16.11478664      16.11257298      16.10158617      16.08855992      16.07147462      16.05507812      16.05543503      16.07318964      16.09405678      16.11554296      16.13613113      16.16193046      16.18563360      16.19540242      16.19681598
        15.27829831      15.27812954      15.27786743      15.27916587      15.28139580      15.28578948      15.29273850      15.30166858      15.31166607      15.32302805      15.33516763      15.34743262      15.35734535      15.36685023      15.37725487      15.38960257      15.40345876      15.41815366      15.43355148      15.44885048
        15.46229370      15.47220168      15.48009249      15.48389036      15.48701017      15.49198069      15.50005850      15.51155075      15.52529553      15.54427312      15.56708994      15.59852893      15.63544748      15.67897644      15.72607094      15.77720978      15.83228173      15.88883319      15.94193208      15.98818026
        16.01565629      16.01306867      15.98109973      15.93717264      15.90153483      15.87705349      15.86014669      15.84671632      15.82907304      15.81225703      15.80250647      15.80134050      15.80267891      15.80786040      15.81730749      15.83464283      15.85665705      15.87928299      15.90160658      15.91875314
        15.92693931      15.92838087      15.92984392      15.93449812      15.94399973      15.95417488      15.96812169      15.98753692      16.01725561      16.05463143      16.09774006      16.13825855      16.17264824      16.19827649      16.21805787      16.23442285      16.24615821      16.25377798      16.26175175      16.27042182
        16.27735283      16.28205766      16.28034439      16.27416378      16.27288355      16.27303715      16.27294091      16.26865977      16.26005473      16.24899592      16.23401206      16.22809666      16.23892647      16.25952482      16.28221072      16.30638501      16.33535084      16.36555881      16.37959655      16.38507193
        15.32303107      15.32239148      15.32242927      15.32270435      15.32503991      15.32918267      15.33628160      15.34492853      15.35466412      15.36579350      15.37853349      15.39176442      15.40322405      15.41450462      15.42669128      15.43975268      15.45442532      15.46931795      15.48450584      15.50108468
        15.51884754      15.53678567      15.55199380      15.56201963      15.57072677      15.57766216      15.58696584      15.59885989      15.61292775      15.63138088      15.65440858      15.68354031      15.72048633      15.76366562      15.81030934      15.86094472      15.91401768      15.96885869      16.02468946      16.08155181
        16.12751751      16.14430223      16.12393788      16.08099916      16.04086220      16.01203294      15.99112763      15.97422333      15.95548155      15.93783231      15.92378795      15.91438579      15.90920687      15.91023073      15.91572665      15.92724857      15.94737293      15.97108341      15.99675024      16.01702473
        16.03029129      16.03613426      16.04085102      16.04661677      16.05773151      16.06962170      16.08274749      16.10144399      16.12744912      16.16122620      16.20075912      16.24068878      16.27629502      16.30418734      16.32374603      16.33800176      16.35019551      16.35903324      16.36809869      16.37720344
        16.38629912      16.39491392      16.40254969      16.40422539      16.40617998      16.40819665      16.41024783      16.41324309      16.41141751      16.40754486      16.39968059      16.39108722      16.39438672      16.41212562      16.43506751      16.46384378      16.49805872      16.52920902      16.54591082      16.55320019
        15.36702508      15.36596800      15.36606494      15.36568057      15.36756510      15.37200476      15.37853084      15.38633887      15.39555703      15.40660798      15.41916670      15.43254223      15.44570892      15.45868126      15.47189016      15.48554217      15.49971605      15.51356375      15.52709884      15.54317123
        15.56493679      15.59113624      15.61504439      15.63355187      15.64805615      15.65925304      15.67112261      15.68499333      15.70200149      15.72058074      15.74345647      15.77042623      15.80644291      15.84772148      15.89160432      15.93826351      15.98719575      16.03792768      16.09459686      16.15690558
        16.21543758      16.25123743      16.24900153      16.21677703      16.17503606      16.14124567      16.11587791      16.09590617      16.07670063      16.05986476      16.04560977      16.03157071      16.02039449      16.01582956      16.01662472      16.02226754      16.03888169      16.06354163      16.08847231      16.10988054
        16.12689356      16.13678982      16.14354192      16.15085547      16.16092106      16.17408593      16.18738333      16.20622640      16.22982197      16.26065118      16.29589941      16.33176979      16.36511783      16.39445648      16.41538977      16.42815303      16.44039337      16.44994222      16.45963008      16.47017124
        16.47975026      16.49085411      16.50348581      16.51371233      16.51857082      16.52246848      16.52682468      16.53288063      16.53810834      16.54106843      16.54049338      16.53594866      16.53699519      16.55082558      16.57393090      16.60760536      16.64519160      16.67583368      16.69568360      16.70254203
        15.41031974      15.41017690      15.41018809      15.40963183      15.41075624      15.41475027      15.42074147      15.42770098      15.43614904      15.44645545      15.45857357      15.47163580      15.48573950      15.49993447      15.51369475      15.52760108      15.54044297      15.55188741      15.56167129      15.57346205
        15.60125668      15.63627360      15.66939791      15.69679966      15.71799817      15.73576334      15.75191836      15.76857278      15.78771945      15.80762551      15.83000385      15.85576881      15.88836389      15.92661653      15.96700624      16.00909827      16.05334185      16.10085746      16.15714377      16.22067318
        16.28641896      16.33575970      16.35330229      16.33729326      16.30326574      16.26705067      16.23752116      16.21358073      16.19317677      16.17513451      16.16157384      16.14764692      16.13525496      16.12625572      16.12268480      16.12420776      16.13632447      16.15881233      16.18188124      16.20353907
        16.22202007      16.23430258      16.24193537      16.24924179      16.25810097      16.26826883      16.28192854      16.29887748      16.32228580      16.35047658      16.38070467      16.41082626      16.44002216      16.46793633      16.48942202      16.50334811      16.51578225      16.52656621      16.53690856      16.54899860
        16.56023822      16.57346356      16.58720324      16.60094173      16.61010323      16.61602217      16.62257506      16.63064791      16.63986610      16.64687054      16.65137850      16.65423246      16.65950199      16.67329659      16.69766189      16.73208270      16.76866105      16.80020186      16.82205646      16.82981538
        15.45257023      15.45315530      15.45346675      15.45324891      15.45391523      15.45712820      15.46224156      15.46851622      15.47608034      15.48488703      15.49665061      15.50925279      15.52301707      15.53783352      15.55211633      15.56539947      15.57744022      15.58562386      15.58779503      15.58503683
        15.62585936      15.67272976      15.71586774      15.75198179      15.78132895      15.80644648      15.82821200      15.84798276      15.86770326      15.88815217      15.90987845      15.93519444      15.96511962      16.00005344      16.03701037      16.07485011      16.11493010      16.15981559      16.21422207      16.27813632
        16.34607731      16.40340566      16.43852830      16.43948178      16.41822858      16.38686444      16.35677202      16.32992034      16.30751934      16.28636908      16.27161416      16.26008219      16.25002294      16.24195512      16.23724037      16.23630461      16.24315525      16.25972616      16.28086929      16.30093582
        16.31958453      16.33334412      16.34091443      16.34459493      16.34964779      16.35612681      16.36757406      16.38270902      16.40424982      16.42866512      16.45433379      16.48061554      16.50524162      16.52934846      16.54995392      16.56557081      16.57869023      16.59135290      16.60317364      16.61555776
        16.62910706      16.64361513      16.65778319      16.67207498      16.68466244      16.69398552      16.70308837      16.71297790      16.72384829      16.73291210      16.74077940      16.74904827      16.76195314      16.77958607      16.80589088      16.83839632      16.87207863      16.90281187      16.92419369      16.93294108
        15.49462496      15.49471582      15.49480054      15.49502808      15.49554219      15.49813817      15.50203806      15.50715069      15.51360202      15.52159029      15.53238908      15.54382490      15.55685889      15.57143830      15.58576050      15.59894060      15.61081791      15.61737240      15.60975452      15.55631350
        15.64498000      15.70638285      15.75756544      15.80108783      15.83749531      15.86862022      15.89594431      15.91915877      15.93953162      15.95956210      15.98093231      16.00619029      16.03569375      16.06769353      16.10113871      16.13428316      16.17072852      16.21349349      16.26728099      16.33126269
        16.39786859      16.45901850      16.50579204      16.52312802      16.51441238      16.49250584      16.46600879      16.44051709      16.41632598      16.39265710      16.37577546      16.36730052      16.36154926      16.35735687      16.35570596      16.35551995      16.35724163      16.36705646      16.38404332      16.40279278
        16.42056218      16.43361537      16.43915909      16.43732970      16.43560589      16.43832849      16.44604469      16.45947220      16.47735618      16.49790332      16.51968972      16.54211982      16.56313697      16.58304246      16.60066139      16.61703632      16.63129228      16.64561867      16.65957128      16.67238323
        16.68692724      16.70202215      16.71732861      16.73256301      16.74731846      16.76040649      16.77256596      16.78385905      16.79595047      16.80794224      16.81869607      16.83150876      16.84951564      16.87214316      16.90004716      16.93060463      16.95986058      16.98752302      17.00763028      17.01657433
        15.53613910      15.53560439      15.53556230      15.53614184      15.53618594      15.53765743      15.54023627      15.54413353      15.54954412      15.55663057      15.56571503      15.57608817      15.58822989      15.60203804      15.61615369      15.62965405      15.64203610      15.65256916      15.65836808      15.66173786
        15.70072645      15.74931326      15.79987770      15.84650599      15.88701266      15.92236836      15.95371603      15.98000185      16.00208154      16.02222258      16.04415047      16.07013682      16.10008787      16.13026155      16.15967330      16.18861786      16.22206278      16.26406775      16.31829934      16.38036601
        16.44398026      16.50592340      16.55870414      16.58923999      16.59315636      16.58111945      16.56182613      16.54179102      16.51856491      16.49459832      16.47675391      16.46949251      16.46780505      16.46849427      16.47227789      16.47602147      16.47617272      16.47967913      16.49062785      16.50735005
        16.52436897      16.53491353      16.53732833      16.53024393      16.52135284      16.51849620      16.52142519      16.53117061      16.54467706      16.56196887      16.58006660      16.59775226      16.61575329      16.63138778      16.64589940      16.66117206      16.67567076      16.69057419      16.70543175      16.71927687
        16.73391840      16.74963795      16.76607793      16.78326134      16.80028085      16.81731713      16.83247511      16.84652472      16.86003918      16.87517105      16.88977861      16.90602946      16.92582975      16.95069274      16.97836439      17.00600221      17.03153822      17.05545238      17.07459767      17.08373788
        15.57470147      15.57442728      15.57489696      15.57600472      15.57628630      15.57640916      15.57760068      15.58039472      15.58490705      15.59087646      15.59800877      15.60764045      15.61919636      15.63215167      15.64559375      15.65899417      15.67217583      15.68605907      15.70055005      15.71833220
        15.74920426      15.79190272      15.84087180      15.88803638      15.93028560      15.96863302      16.00304027      16.03238895      16.05676294      16.07873725      16.10190335      16.12844936      16.15771731      16.18639282      16.21212462      16.23858567      16.26989051      16.31129979      16.36481395      16.42491948
        16.48595037      16.54551843      16.60060907      16.63860057      16.65316326      16.65153821      16.64147375      16.62834912      16.61250006      16.59229715      16.57552558      16.56784807      16.56789775      16.57348179      16.58268028      16.59150494      16.59393076      16.59298701      16.59879017      16.61276270
        16.62722713      16.63570708      16.63545370      16.62460563      16.60780194      16.59839778      16.59578220      16.60016966      16.60929230      16.62230576      16.63687665      16.65033724      16.66437097      16.67637037      16.68787853      16.70062653      16.71423711      16.72832042      16.74245842      16.75677483
        16.77156476      16.78781752      16.80594425      16.82520315      16.84495638      16.86572097      16.88392501      16.90099765      16.91677840      16.93375533      16.95095293      16.96873423      16.98953543      17.01411903      17.03989484      17.06478738      17.08793114      17.10970905      17.12754337      17.13708731
        15.60845011      15.60957855      15.61105100      15.61341019      15.61503754      15.61492420      15.61513746      15.61631092      15.61940180      15.62472918      15.63069312      15.63967209      15.65115911      15.66312430      15.67565065      15.68840631      15.70223567      15.71816911      15.73709406      15.76000401
        15.79053772      15.83101322      15.87837022      15.92561535      15.96911734      16.00968561      16.04620600      16.07762189      16.10436176      16.12829399      16.15253575      16.17909526      16.20667504      16.23353769      16.25673191      16.28184228      16.31199848      16.35285658      16.40521402      16.46434020
        16.52321522      16.57901154      16.63308863      16.67480162      16.69740780      16.70562978      16.70507313      16.69941557      16.69300179      16.68188690      16.66995653      16.66279199      16.66299884      16.67102586      16.68355043      16.69785973      16.70612136      16.70585297      16.70731488      16.71634363
        16.72762969      16.73474883      16.73170426      16.71722379      16.69362485      16.67639733      16.66869745      16.66743408      16.67156426      16.67990356      16.69053670      16.70047417      16.71015997      16.71883218      16.72718751      16.73719453      16.74931604      16.76230640      16.77506298      16.78847516
        16.80316844      16.81967964      16.83912606      16.86039440      16.88357869      16.90706529      16.92857583      16.94769895      16.96523348      16.98269773      16.99998334      17.01866355      17.04015829      17.06434395      17.08869208      17.11173538      17.13342164      17.15434371      17.17062382      17.18016826
        15.63940682      15.64176782      15.64470970      15.64852085      15.65171792      15.65277267      15.65302410      15.65277290      15.65425998      15.65846854      15.66477224      15.67352574      15.68448890      15.69579468      15.70718886      15.71894061      15.73345481      15.75058464      15.77190569      15.79663246
        15.82761428      15.86645106      15.91306031      15.96082303      16.00525263      16.04620917      16.08344874      16.11620633      16.14472719      16.17015873      16.19517068      16.22096259      16.24697376      16.27163948      16.29375801      16.31796328      16.34772907      16.38794004      16.43951663      16.49830484
        16.55558401      16.60808337      16.65951064      16.70336735      16.73242716      16.74903172      16.75729720      16.75965962      16.76039213      16.75926941      16.75587712      16.75294842      16.75449225      16.76201642      16.77570309      16.79380886      16.80936253      16.81611918      16.81666398      16.82125464
        16.82960304      16.83366251      16.82569179      16.80589378      16.77781931      16.75287759      16.73908938      16.73197437      16.73095291      16.73441705      16.74056837      16.74738534      16.75302041      16.75856803      16.76451871      16.77229021      16.78269296      16.79425695      16.80570737      16.81767328
        16.83166604      16.84813730      16.86848287      16.89178964      16.91800249      16.94399762      16.96774444      16.98779190      17.00593924      17.02291062      17.03944004      17.05805575      17.08003664      17.10418323      17.12806251      17.14958686      17.17037986      17.19010677      17.20517995      17.21360650
        15.66868449      15.67155189      15.67581967      15.68028853      15.68458765      15.68722668      15.68866200      15.68872015      15.68924150      15.69235172      15.69925764      15.70836456      15.71815752      15.72872306      15.73921068      15.75059158      15.76513547      15.78299279      15.80499593      15.83029615
        15.86104725      15.89869168      15.94416547      15.99189613      16.03615118      16.07611645      16.11357978      16.14736441      16.17712651      16.20335366      16.22820080      16.25324175      16.27862977      16.30190840      16.32365194      16.34725519      16.37700646      16.41659129      16.46752357      16.52661373
        16.58302747      16.63321999      16.68239737      16.72694597      16.76070219      16.78409177      16.79955476      16.80911264      16.81597578      16.82215784      16.82694246      16.83088989      16.83642085      16.84411680      16.85787490      16.87733395      16.89765729      16.91325641      16.92081071      16.92544656
        16.93030120      16.92956673      16.91601691      16.88813578      16.85552302      16.82443383      16.80373204      16.79100975      16.78412979      16.78256934      16.78443662      16.78843673      16.79151578      16.79502189      16.79923979      16.80546871      16.81376517      16.82368214      16.83410234      16.84479655
        16.85787826      16.87444089      16.89555401      16.92057399      16.94910126      16.97694981      17.00145442      17.02191388      17.03993400      17.05619505      17.07140448      17.08926246      17.11048932      17.13458346      17.15841548      17.17925595      17.19908835      17.21733328      17.23111548      17.23823145
        15.69683741      15.69966506      15.70441606      15.70897081      15.71340734      15.71762202      15.72053611      15.72228157      15.72339141      15.72653829      15.73334458      15.74238602      15.75158975      15.76135157      15.77097820      15.78259175      15.79692346      15.81517020      15.83683663      15.86220168
        15.89201121      15.92791271      15.97116823      16.01765303      16.06047834      16.10004030      16.13700663      16.17080320      16.20117284      16.22794415      16.25298977      16.27824985      16.30350668      16.32625972      16.34748944      16.37073334      16.40059963      16.43995034      16.49042266      16.54970869