# File generated by Flopy version 3.7.0 on 07/22/2024 at 16:02:02.
BEGIN options
END options

BEGIN griddata
  strt
    INTERNAL  FACTOR  1.0
        15.00000000      15.00000000      15.00000000      15.00000000      15.00000000      15.00000000      15.00000000      15.00000000      15.00000000      15.00000000      15.00000000      15.00000000      15.00000000      15.00000000      15.00000000      15.00000000      15.00000000      15.00000000      15.00000000      15.00000000
        15.00000000      15.00000000      15.00000000      15.00000000      15.00000000      15.00000000      15.00000000      15.00000000      15.00000000      15.00000000      15.00000000      15.00000000      15.00000000      15.00000000      15.00000000      15.00000000      15.00000000      15.00000000      15.00000000      15.00000000
        15.00000000      15.00000000      15.00000000      15.00000000      15.00000000      15.00000000      15.00000000      15.00000000      15.00000000      15.00000000      15.00000000      15.00000000      15.00000000      15.00000000      15.00000000      15.00000000      15.00000000      15.00000000      15.00000000      15.00000000
        15.00000000      15.00000000      15.00000000      15.00000000      15.00000000      15.00000000      15.00000000      15.00000000      15.00000000      15.00000000      15.00000000      15.00000000      15.00000000      15.00000000      15.00000000      15.00000000      15.00000000      15.00000000      15.00000000      15.00000000
        15.00000000      15.00000000      15.00000000      15.00000000      15.00000000      15.00000000      15.00000000      15.00000000      15.00000000      15.00000000      15.00000000      15.00000000      15.00000000      15.00000000      15.00000000      15.00000000      15.00000000      15.00000000      15.00000000      15.00000000
        15.15558523      15.16082698      15.16784440      15.17336243      15.17299089      15.16792708      15.15942909      15.15136708      15.14627193      15.14395892      15.14031208      15.13260228      15.12283789      15.11228885      15.10255915      15.09305548      15.08386591      15.07502416      15.06609122      15.05797914
        15.05034691      15.04391615      15.03818683      15.03288451      15.02831549      15.02490962      15.02304921      15.02216700      15.02169917      15.02102477      15.02026443      15.01952498      15.01928353      15.01960856      15.02059289      15.02197144      15.02334902      15.02542163      15.02867494      15.03350049
        15.03955125      15.04600283      15.05158774      15.05631905      15.06070016      15.06453865      15.06886491      15.07283998      15.07589624      15.07769092      15.07838792      15.07995055      15.08475462      15.09081353      15.09633181      15.10070940      15.10315268      15.10366731      15.10289702      15.09943404
        15.09453451      15.08894855      15.08248426      15.07518248      15.06927166      15.06374126      15.05842823      15.05427830      15.05310313      15.05591964      15.06239703      15.07112106      15.08205901      15.09423772      15.10693025      15.11848719      15.12829825      15.13696840      15.14284983      15.14709268
        15.15162889      15.15891768      15.16997481      15.18441437      15.20092919      15.22143935      15.24220060      15.26176083      15.27541272      15.27679390      15.26757486      15.25242490      15.23567465      15.21704871      15.19778039      15.18173284      15.16512804      15.14944677      15.14004726      15.13685329
        15.25218615      15.25683512      15.26231433      15.26526199      15.26284124      15.25566630      15.24481344      15.23254151      15.22178269      15.21279304      15.20281059      15.19113060      15.17891181      15.16709249      15.15567877      15.14389712      15.13218289      15.12064481      15.10890376      15.09743782
        15.08680326      15.07665651      15.06768059      15.05987869      15.05336154      15.04863793      15.04548030      15.04333829      15.04169528      15.04006624      15.03888503      15.03835942      15.03849292      15.03942628      15.04104707      15.04324830      15.04601938      15.05056104      15.05734293      15.06621419
        15.07631851      15.08665849      15.09578392      15.10384382      15.11111312      15.11763267      15.12425730      15.13040874      15.13603527      15.14114672      15.14609360      15.15219370      15.15957921      15.16657347      15.17175480      15.17398393      15.17414321      15.17210035      15.16786465      15.16049028
        15.15194777      15.14326183      15.13451130      15.12554106      15.11729457      15.10961112      15.10318867      15.09954384      15.10055889      15.10715999      15.11802432      15.13281714      15.15112258      15.17209444      15.19403708      15.21389314      15.23095764      15.24331772      15.25161461      15.25912594
        15.26904260      15.28463111      15.30781586      15.33815211      15.37227873      15.40844084      15.44201924      15.46980282      15.48405153      15.47939190      15.46358270      15.43858816      15.41071396      15.38318106      15.35550473      15.33200799      15.31277145      15.29827667      15.28945755      15.28703609
        15.30844918      15.30973491      15.31039422      15.30896670      15.30475323      15.29635034      15.28435573      15.27031594      15.25682136      15.24466364      15.23273176      15.22070302      15.20887620      15.19747488      15.18623980      15.17453796      15.16257717      15.15042892      15.13823750      15.12600006
        15.11436441      15.10305606      15.09266358      15.08370949      15.07617358      15.07048303      15.06611551      15.06246480      15.05933570      15.05713413      15.05606090      15.05625587      15.05747941      15.05910780      15.06122453      15.06439717      15.06934445      15.07667888      15.08639805      15.09755223
        15.10956488      15.12167938      15.13278804      15.14279725      15.15220318      15.16176516      15.17149278      15.18078352      15.18887589      15.19656325      15.20405125      15.21114203      15.21728088      15.22224817      15.22501504      15.22530678      15.22357940      15.21939761      15.21250538      15.20424101
        15.19542873      15.18609636      15.17626336      15.16606482      15.15623963      15.14812929      15.14300389      15.14196611      15.14621208      15.15592920      15.17117338      15.19172179      15.21470757      15.23895125      15.26350548      15.28627326      15.30576927      15.32021420      15.33197787      15.34551942
        15.36424642      15.39112260      15.42598933      15.46703077      15.50986621      15.55038790      15.58466372      15.60848714      15.61902679      15.61263022      15.59508815      15.56933158      15.53916017      15.50903314      15.48067741      15.45820335      15.44167368      15.43086356      15.42295564      15.41967787
        15.33411213      15.33349060      15.33144637      15.32748121      15.32139664      15.31223467      15.29997915      15.28606479      15.27257032      15.26027630      15.24893354      15.23792127      15.22703783      15.21611238      15.20541927      15.19432838      15.18303142      15.17126721      15.15936089      15.14764827
        15.13629166      15.12534408      15.11484185      15.10534538      15.09726426      15.09044721      15.08483915      15.08010749      15.07635913      15.07421847      15.07375623      15.07476752      15.07666817      15.07910893      15.08234483      15.08709314      15.09449746      15.10427270      15.11526327      15.12682803
        15.13903202      15.15117541      15.16278787      15.17444436      15.18676583      15.19920156      15.21107191      15.22155749      15.23031643      15.23785301      15.24476546      15.25081668      15.25575959      15.25955946      15.26096287      15.26004730      15.25711602      15.25234841      15.24619733      15.23923820
        15.23129587      15.22250361      15.21317937      15.20407227      15.19568609      15.18921736      15.18628447      15.18761607      15.19436357      15.20659485      15.22446746      15.24645648      15.26911272      15.29201348      15.31498245      15.33786895      15.35865877      15.37687332      15.39434851      15.41485498
        15.44053355      15.47168158      15.50866885      15.55121193      15.59438582      15.63301224      15.66374783      15.68430529      15.69275819      15.68910442      15.67589568      15.65618123      15.63096669      15.60340788      15.57861067      15.55846836      15.54392295      15.53267283      15.52375588      15.51895166
        15.34218140      15.34053797      15.33694164      15.33138925      15.32418246      15.31525911      15.30420795      15.29216578      15.28014563      15.26888534      15.25842192      15.24828374      15.23833565      15.22822494      15.21815398      15.20786933      15.19732699      15.18659360      15.17550799      15.16470078
        15.15434087      15.14419580      15.13435255      15.12498738      15.11649751      15.10890663      15.10225723      15.09701571      15.09357484      15.09200423      15.09203331      15.09346941      15.09572169      15.09900625      15.10383827      15.11082385      15.12036973      15.13114480      15.14187746      15.15312245
        15.16507499      15.17747528      15.19019570      15.20353365      15.21732768      15.23021149      15.24146827      15.25078515      15.25844546      15.26504780      15.27096151      15.27622858      15.28022004      15.28268820      15.28326807      15.28198845      15.27952536      15.27624769      15.27214527      15.26686914
        15.26043461      15.25366136      15.24699468      15.24058079      15.23519589      15.23213458      15.23205058      15.23564023      15.24325891      15.25570367      15.27222923      15.29174189      15.31225362      15.33306325      15.35501344      15.37893888      15.40300125      15.42546029      15.44691821      15.46958400
        15.49513223      15.52469707      15.56018135      15.60045661      15.64002440      15.67440631      15.70189035      15.72168575      15.73176590      15.73257937      15.72474257      15.71079055      15.69237579      15.67044485      15.64832469      15.62909692      15.61460001      15.60323228      15.59469621      15.58980700
        15.34120117      15.33845533      15.33380478      15.32778727      15.32092129      15.31300858      15.30388013      15.29420151      15.28407646      15.27405048      15.26460939      15.25543745      15.24629090      15.23699669      15.22764524      15.21819703      15.20857379      15.19884162      15.18880990      15.17885573
        15.16943913      15.16015739      15.15112378      15.14244874      15.13408972      15.12630557      15.11936416      15.11415589      15.11116182      15.10984904      15.10998319      15.11116980      15.11357238      15.11791743      15.12492290      15.13435011      15.14516359      15.15589888      15.16642327      15.17787438
        15.19041612      15.20353127      15.21671462      15.23011978      15.24284532      15.25386607      15.26313926      15.27080198      15.27707257      15.28263108      15.28771008      15.29220043      15.29530613      15.29693153      15.29746259      15.29705554      15.29573873      15.29395113      15.29134428      15.28774852
        15.28349001      15.27941408      15.27598290      15.27274971      15.27061100      15.27076551      15.27327157      15.27854905      15.28651084      15.29792811      15.31255068      15.33012897      15.34924323      15.36960985      15.39263552      15.41899492      15.44593314      15.47039975      15.49244448      15.51314126
        15.53631282      15.56404242      15.59671664      15.63206234      15.66601865      15.69713810      15.72348733      15.74418633      15.75675556      15.75959321      15.75404142      15.74290781      15.72820366      15.71044032      15.69141903      15.67391102      15.65971364      15.64921609      15.64135910      15.63699322
        15.33579004      15.33241527      15.32768158      15.32215706      15.31618571      15.30969045      15.30262630      15.29496525      15.28662788      15.27796931      15.26944269      15.26106241      15.25260877      15.24404690      15.23534096      15.22645647      15.21753856      15.20848046      15.19924880      15.19000536
        15.18138708      15.17327232      15.16541029      15.15774803      15.15024377      15.14303760      15.13669792      15.13192934      15.12908715      15.12786638      15.12810422      15.12940813      15.13247205      15.13824974      15.14697878      15.15766279      15.16896423      15.17945489      15.19005852      15.20189814
        15.21461721      15.22733013      15.23957733      15.25154688      15.26198206      15.27054952      15.27774622      15.28377920      15.28891469      15.29375888      15.29837333      15.30232747      15.30525136      15.30710216      15.30814118      15.30863177      15.30840100      15.30750253      15.30610761      15.30454876
        15.30291580      15.30144794      15.30022048      15.29941975      15.29949337      15.30134794      15.30532878      15.31147578      15.31991346      15.33091117      15.34503692      15.36229881      15.38201422      15.40395679      15.42844704      15.45588266      15.48360847      15.50786297      15.52841001      15.54741611
        15.56875845      15.59384070      15.62238246      15.65223965      15.68202135      15.71122361      15.73686945      15.75749925      15.77082239      15.77453339      15.77056416      15.76118744      15.74875333      15.73353013      15.71676381      15.70049712      15.68671405      15.67678956      15.66973825      15.66585392
        15.32955776      15.32634603      15.32216193      15.31749141      15.31250079      15.30739133      15.30190423      15.29566547      15.28868721      15.28125044      15.27360086      15.26590948      15.25801327      15.24987460      15.24170413      15.23327818      15.22474384      15.21614136      15.20744543      15.19883057
        15.19091245      15.18381991      15.17715198      15.17074131      15.16449678      15.15861289      15.15370455      15.14985472      15.14733763      15.14647182      15.14713120      15.14958288      15.15451382      15.16204447      15.17178338      15.18262144      15.19293251      15.20244205      15.21255475      15.22362874
        15.23505488      15.24611108      15.25669328      15.26632160      15.27431713      15.28090044      15.28660576      15.29167090      15.29635217      15.30095685      15.30543011      15.30948571      15.31284459      15.31525718      15.31701522      15.31836809      15.31919683      15.31939549      15.31941133      15.31941858
        15.31941768      15.31956164      15.31956760      15.32002197      15.32121254      15.32399975      15.32859819      15.33498860      15.34371982      15.35541411      15.37070545      15.38918073      15.41013560      15.43278886      15.45761099      15.48472766      15.51172993      15.53535799      15.55579978      15.57468352
        15.59401208      15.61586332      15.64011053      15.66539831      15.69194490      15.71943501      15.74410639      15.76357500      15.77687574      15.78181461      15.77938575      15.77134755      15.76018993      15.74650799      15.73131833      15.71620846      15.70286510      15.69296087      15.68644214      15.68304469
        15.32426320      15.32165874      15.31823581      15.31449340      15.31057571      15.30656954      15.30206743      15.29678785      15.29075645      15.28418757      15.27732058      15.27018314      15.26283966      15.25526798      15.24748875      15.23943919      15.23116694      15.22280958      15.21430869      15.20597749
        15.19908255      15.19307539      15.18765342      15.18265925      15.17801214      15.17386254      15.17057948      15.16798352      15.16631146      15.16620418      15.16817241      15.17263579      15.17954001      15.18837749      15.19830587      15.20771526      15.21584484      15.22374467      15.23224116      15.24122077
        15.25046147      15.25958234      15.26821271      15.27575197      15.28212636      15.28764762      15.29268999      15.29745935      15.30205745      15.30678452      15.31150726      15.31587083      15.31965386      15.32275509      15.32535386      15.32757591      15.32924217      15.33035175      15.33119179      15.33203640
        15.33293984      15.33387383      15.33513864      15.33717558      15.34001816      15.34372720      15.34879840      15.35568971      15.36522118      15.37800113      15.39380457      15.41187657      15.43216544      15.45452380      15.47910670      15.50522755      15.53117436      15.55518742      15.57661624      15.59577999
        15.61370994      15.63245961      15.65268717      15.67415365      15.69725289      15.72184165      15.74492106      15.76333782      15.77648091      15.78272976      15.78161796      15.77456267      15.76425499      15.75176178      15.73788789      15.72395252      15.71152820      15.70207135      15.69602512      15.69311360
        15.32052395      15.31854932      15.31586430      15.31297371      15.30995941      15.30668123      15.30281499      15.29831391      15.29313274      15.28724274      15.28084541      15.27420600      15.26741482      15.26037304      15.25301963      15.24537565      15.23744979      15.22910344      15.22013749      15.21095732
        15.20612169      15.20187508      15.19798941      15.19455556      15.19164393      15.18933739      15.18752465      15.18641361      15.18616709      15.18756048      15.19127396      15.19713269      15.20460142      15.21311442      15.22139724      15.22826328      15.23422188      15.24037860      15.24700662      15.25401877
        15.26150519      15.26909985      15.27623759      15.28266149      15.28836025      15.29346678      15.29830105      15.30306256      15.30781180      15.31268875      15.31759305      15.32227805      15.32656920      15.33039190      15.33370233      15.33650041      15.33872650      15.34042408      15.34175863      15.34325303
        15.34506665      15.34732010      15.35061359      15.35489247      15.35955143      15.36459027      15.37054344      15.37831080      15.38830691      15.40060448      15.41486453      15.43115624      15.44997039      15.47132067      15.49501197      15.52006690      15.54537774      15.56971627      15.59196016      15.61173935
        15.62823710      15.64344420      15.65952888      15.67745691      15.69700289      15.71804102      15.73824503      15.75531883      15.76789504      15.77515224      15.77541074      15.76945519      15.76044197      15.74952777      15.73725257      15.72475864      15.71365203      15.70501757      15.69945113      15.69692654
        15.31839261      15.31689218      15.31482389      15.31258834      15.31011898      15.30731262      15.30399434      15.30009737      15.29557577      15.29031176      15.28440457      15.27816272      15.27181115      15.26531827      15.25846171      15.25120579      15.24363126      15.23535521      15.22538659      15.21069645
        15.21259184      15.21100403      15.20878012      15.20682282      15.20535297      15.20458288      15.20422628      15.20468444      15.20611162      15.20893951      15.21341657      15.21916512      15.22581636      15.23254146      15.23822954      15.24291817      15.24745000      15.25244226      15.25791262      15.26383418
        15.27025768      15.27690696      15.28326897      15.28909975      15.29445345      15.29933899      15.30403729      15.30867148      15.31336171      15.31829725      15.32339627      15.32844458      15.33328473      15.33781472      15.34187200      15.34541201      15.34835841      15.35087772      15.35311840      15.35564477
        15.35884130      15.36294558      15.36808273      15.37393317      15.37998867      15.38604754      15.39252242      15.40041556      15.41018018      15.42116354      15.43338743      15.44780202      15.46491475      15.48513133      15.50785431      15.53172637      15.55578062      15.57925217      15.60184747      15.62155813
        15.63650351      15.64828584      15.66056419      15.67483090      15.69057950      15.70738383      15.72381919      15.73873760      15.74979124      15.75654435      15.75815916      15.75421715      15.74721185      15.73814957      15.72843859      15.71866025      15.70957749      15.70204964      15.69705822      15.69485725
        15.31746417      15.31635451      15.31474811      15.31289482      15.31076443      15.30825693      15.30530235      15.30187966      15.29789434      15.29323760      15.28796053      15.28230466      15.27643953      15.27040910      15.26417203      15.25758193      15.25068389      15.24335752      15.23538876      15.22724058
        15.22452307      15.22251599      15.22084019      15.21986076      15.21962875      15.21994025      15.22073029      15.22217135      15.22449886      15.22783598      15.23206969      15.23707727      15.24241500      15.24714137      15.25099667      15.25457850      15.25849094      15.26276571      15.26745156      15.27261635
        15.27838446      15.28442510      15.29023022      15.29559113      15.30047573      15.30487943      15.30920497      15.31362253      15.31827069      15.32335537      15.32870488      15.33416854      15.33966652      15.34503797      15.35012997      15.35456441      15.35859653      15.36257747      15.36641308      15.37041460
        15.37519962      15.38078702      15.38683334      15.39298562      15.39951074      15.40587351      15.41245816      15.42003043      15.42887102      15.43846321      15.44906993      15.46194636      15.47773181      15.49661006      15.51756242      15.53903719      15.56072265      15.58304585      15.60523977      15.62416569
        15.63760188      15.64676423      15.65568411      15.66611843      15.67776405      15.68994448      15.70201832      15.71366594      15.72259459      15.72820042      15.73077760      15.72894143      15.72434003      15.71831247      15.71206364      15.70548462      15.69885472      15.69299044      15.68902804      15.68727560
        15.31740106      15.31652412      15.31517929      15.31353536      15.31163423      15.30942913      15.30677567      15.30367340      15.30012735      15.29605425      15.29142581      15.28642804      15.28124452      15.27587569      15.27044109      15.26494499      15.25939535      15.25366217      15.24780685      15.24234750
        15.23883736      15.23638745      15.23479558      15.23413700      15.23438598      15.23512118      15.23630032      15.23806086      15.24079638      15.24423238      15.24817751      15.25226996      15.25609160      15.25928294      15.26210979      15.26510334      15.26859403      15.27243263      15.27661972      15.28137780
        15.28673737      15.29214801      15.29713411      15.30161765      15.30572778      15.30965672      15.31375339      15.31809434      15.32288448      15.32827693      15.33394905      15.33987175      15.34611018      15.35252881      15.35873387      15.36445894      15.37027724      15.37621744      15.38180604      15.38711005
        15.39293023      15.39912875      15.40517132      15.41097385      15.41716715      15.42338797      15.42961565      15.43623817      15.44372276      15.45224867      15.46165994      15.47312545      15.48735783      15.50413439      15.52254515      15.54157338      15.56098087      15.58120773      15.60171620      15.61926103
        15.63166101      15.63935257      15.64561292      15.65259022      15.66085529      15.66959885      15.67817194      15.68655347      15.69367160      15.69862782      15.70155590      15.70116226      15.69837921      15.69503308      15.69141060      15.68752286      15.68353803      15.68007805      15.67763044      15.67655915
        15.31785647      15.31712098      15.31595418      15.31449615      15.31278911      15.31082819      15.30846707      15.30566752      15.30252632      15.29897435      15.29495638      15.29065014      15.28630550      15.28188565      15.27754231      15.27333762      15.26932888      15.26540302      15.26143735      15.25753778
        15.25430336      15.25178750      15.24998798      15.24888606      15.24860461      15.24914410      15.25043854      15.25266163      15.25567416      15.25899549      15.26236959      15.26536573      15.26784434      15.27007348      15.27235478      15.27499287      15.27809676      15.28161473      15.28559352      15.29000154
        15.29464214      15.29900005      15.30294610      15.30665207      15.31027243      15.31395420      15.31795114      15.32248853      15.32767022      15.33342779      15.33945574      15.34596287      15.35318444      15.36090586      15.36887309      15.37677738      15.38443827      15.39169726      15.39849220      15.40471410
        15.41063539      15.41644867      15.42217610      15.42751221      15.43280745      15.43831787      15.44367009      15.44910515      15.45551504      15.46305060      15.47133942      15.48122369      15.49343314      15.50793459      15.52403265      15.54088280      15.55818420      15.57605728      15.59415606      15.60978239
        15.62097087      15.62784906      15.63239884      15.63732157      15.64334330      15.65001236      15.65666532      15.66303832      15.66865967      15.67270621      15.67534651      15.67603355      15.67489667      15.67343375      15.67179409      15.67018229      15.66855253      15.66712319      15.66556908      15.66475109
        15.31867960      15.31808243      15.31707901      15.31579808      15.31426857      15.31252752      15.31053248      15.30814438      15.30538512      15.30226472      15.29885829      15.29524094      15.29163608      15.28821399      15.28494048      15.28184994      15.27896549      15.27625391      15.27356321      15.27087909
        15.26847104      15.26632056      15.26431017      15.26270485      15.26182586      15.26211956      15.26367439      15.26622353      15.26911234      15.27195774      15.27457034      15.27673002      15.27848826      15.28021333      15.28214018      15.28431138      15.28687063      15.28997304      15.29337950      15.29701383
        15.30068538      15.30420095      15.30757909      15.31091610      15.31433328      15.31803451      15.32229441      15.32728639      15.33293036      15.33902073      15.34563204      15.35316331      15.36176121      15.37107738      15.38076423      15.39033017      15.39913063      15.40758293      15.41549297      15.42207017
        15.42745854      15.43249884      15.43758653      15.44212997      15.44653587      15.45114519      15.45554086      15.45994003      15.46514971      15.47154915      15.47858632      15.48658578      15.49641821      15.50854094      15.52263293      15.53778254      15.55329989      15.56896800      15.58449339      15.59831720
        15.60827653      15.61420251      15.61774112      15.62152766      15.62609091      15.63150830      15.63691204      15.64210400      15.64677031      15.65021714      15.65284275      15.65459912      15.65528432      15.65561129      15.65571975      15.65536792      15.65479850      15.65387912      15.65264636      15.65168195
        15.31967789      15.31922708      15.31841937      15.31735761      15.31607541      15.31460614      15.31291077      15.31096680      15.30874406      15.30614043      15.30320703      15.30013069      15.29709977      15.29430601      15.29174582      15.28944304      15.28734298      15.28543161      15.28363409      15.28185298
        15.28012424      15.27837484      15.27666006      15.27522966      15.27446858      15.27490567      15.27668139      15.27907580      15.28135865      15.28332251      15.28506419      15.28660609      15.28805402      15.28950338      15.29101747      15.29268509      15.29477656      15.29713300      15.29960387      15.30240824
        15.30542920      15.30848387      15.31161393      15.31486367      15.31833669      15.32226447      15.32697200      15.33253661      15.33868051      15.34533601      15.35299282      15.36185917      15.37179916      15.38236783      15.39334273      15.40433571      15.41476477      15.42434252      15.43230840      15.43829578
        15.44281009      15.44672272      15.45077793      15.45466368      15.45840507      15.46209027      15.46572632      15.46917051      15.47309427      15.47803722      15.48342083      15.48939018      15.49691069      15.50669656      15.51867891      15.53221798      15.54604624      15.55969238      15.57284856      15.58471731
        15.59348941      15.59904556      15.60240652      15.60526429      15.60868922      15.61283779      15.61719267      15.62162700      15.62617182      15.62997445      15.63329040      15.63629380      15.63852663      15.63987100      15.64072667      15.64085532      15.64055222      15.63979163      15.63888872      15.63803109
        15.32068435      15.32036375      15.31977170      15.31894572      15.31791907      15.31674304      15.31539715      15.31384359      15.31207551      15.31000346      15.30759924      15.30499496      15.30242407      15.30001855      15.29794381      15.29620244      15.29477778      15.29348131      15.29220034      15.29095020
        15.28961004      15.28815922      15.28691070      15.28604450      15.28586153      15.28665733      15.28842261      15.29031280      15.29173997      15.29288200      15.29391396      15.29499633      15.29616664      15.29732219      15.29849544      15.29978209      15.30129459      15.30291982      15.30485394      15.30717248