# File generated by Flopy version 3.6.0 on 12/12/2024 at 09:58:40.
BEGIN griddata
  strt
    INTERNAL  FACTOR  1.0
        15.00000000      15.00000000      15.00000000      15.00000000      15.00000000      15.00000000      15.00000000      15.00000000      15.00000000      15.00000000      15.00000000      15.00000000      15.00000000      15.00000000      15.00000000      15.00000000      15.00000000      15.00000000      15.00000000      15.00000000
        15.00000000      15.00000000      15.00000000      15.00000000      15.00000000      15.00000000      15.00000000      15.00000000      15.00000000      15.00000000      15.00000000      15.00000000      15.00000000      15.00000000      15.00000000      15.00000000      15.00000000      15.00000000      15.00000000      15.00000000
        15.00000000      15.00000000      15.00000000      15.00000000      15.00000000      15.00000000      15.00000000      15.00000000      15.00000000      15.00000000      15.00000000      15.00000000      15.00000000      15.00000000      15.00000000      15.00000000      15.00000000      15.00000000      15.00000000      15.00000000
        15.00000000      15.00000000      15.00000000      15.00000000      15.00000000      15.00000000      15.00000000      15.00000000      15.00000000      15.00000000      15.00000000      15.00000000      15.00000000      15.00000000      15.00000000      15.00000000      15.00000000      15.00000000      15.00000000      15.00000000
        15.00000000      15.00000000      15.00000000      15.00000000      15.00000000      15.00000000      15.00000000      15.00000000      15.00000000      15.00000000      15.00000000      15.00000000      15.00000000      15.00000000      15.00000000      15.00000000      15.00000000      15.00000000      15.00000000      15.00000000
        15.08651509      15.08810864      15.09165010      15.09637497      15.10022951      15.10137802      15.09510380      15.08428923      15.07229556      15.05946304      15.04869753      15.03929924      15.03197617      15.02749291      15.02457015      15.02129371      15.01744941      15.01336380      15.01000538      15.00767163
        15.00583551      15.00451542      15.00371965      15.00333770      15.00311451      15.00299656      15.00296490      15.00299728      15.00309327      15.00320130      15.00326620      15.00331755      15.00330987      15.00327352      15.00328321      15.00333923      15.00338331      15.00352887      15.00370664      15.00396537
        15.00435718      15.00479816      15.00528494      15.00593294      15.00666198      15.00728815      15.00791816      15.00869285      15.00957669      15.01037225      15.01098577      15.01167022      15.01257149      15.01371043      15.01499209      15.01638179      15.01786865      15.01989359      15.02259276      15.02553281
        15.02887226      15.03325193      15.03764314      15.04133022      15.04286974      15.04255939      15.04169017      15.04005740      15.03711119      15.03327557      15.03018485      15.02757403      15.02560841      15.02485665      15.02450497      15.02453693      15.02549856      15.02708190      15.02894218      15.03087642
        15.03196131      15.03114465      15.02951354      15.02691339      15.02481450      15.02374462      15.02366082      15.02404217      15.02405576      15.02429210      15.02441648      15.02487849      15.02599294      15.02716574      15.02881275      15.03078594      15.03203429      15.03260533      15.03288964      15.03250293
        15.14898430      15.15125629      15.15545380      15.16187809      15.16876001      15.17134908      15.16253997      15.14465146      15.12507304      15.10488143      15.08656136      15.07164384      15.05943835      15.05094088      15.04527589      15.03972708      15.03329398      15.02642867      15.02012737      15.01548050
        15.01200741      15.00951555      15.00794514      15.00710948      15.00666517      15.00640036      15.00632210      15.00638083      15.00654481      15.00676155      15.00692503      15.00705803      15.00709915      15.00702150      15.00694804      15.00706580      15.00723964      15.00750769      15.00792653      15.00842429
        15.00906751      15.00994701      15.01089790      15.01196438      15.01325627      15.01446742      15.01570264      15.01709077      15.01860204      15.01986852      15.02085131      15.02205647      15.02368140      15.02566240      15.02802212      15.03061151      15.03351908      15.03724871      15.04226008      15.04819948
        15.05470513      15.06206112      15.06954992      15.07625155      15.08060888      15.08124881      15.08012647      15.07804053      15.07386565      15.06839143      15.06314608      15.05853277      15.05495332      15.05316889      15.05266401      15.05304124      15.05464548      15.05678772      15.05938517      15.06247236
        15.06451462      15.06426534      15.06225257      15.05880675      15.05485908      15.05186054      15.05043501      15.05069431      15.05106197      15.05124230      15.05135443      15.05166355      15.05327578      15.05525406      15.05797856      15.06147637      15.06419967      15.06591831      15.06653546      15.06632549
        15.18823501      15.19083003      15.19533421      15.20181123      15.20828639      15.21020574      15.20118523      15.18083104      15.15780712      15.13534518      15.11428281      15.09663807      15.08219403      15.07105181      15.06324267      15.05622106      15.04794158      15.03909298      15.03079049      15.02396637
        15.01886695      15.01518171      15.01288621      15.01154887      15.01084613      15.01043630      15.01022570      15.01028651      15.01053914      15.01084158      15.01112180      15.01130736      15.01139377      15.01132122      15.01122329      15.01133926      15.01167079      15.01208982      15.01269279      15.01337436
        15.01416899      15.01527596      15.01654596      15.01795269      15.01959424      15.02138721      15.02322755      15.02507098      15.02686662      15.02839642      15.02975057      15.03133782      15.03341319      15.03607059      15.03927886      15.04290048      15.04717267      15.05265772      15.05960256      15.06802793
        15.07710734      15.08698008      15.09733352      15.10681104      15.11398080      15.11683925      15.11667584      15.11484282      15.11104519      15.10504184      15.09823103      15.09234082      15.08723328      15.08410467      15.08327067      15.08413910      15.08622045      15.08845921      15.09112396      15.09461572
        15.09734243      15.09807606      15.09640516      15.09310732      15.08810944      15.08337510      15.08054844      15.07996783      15.08058306      15.08095015      15.08108832      15.08133874      15.08294430      15.08537602      15.08874219      15.09274319      15.09653071      15.09914004      15.10009361      15.10048231
        15.20794333      15.21029911      15.21489195      15.22027418      15.22433952      15.22388431      15.21456389      15.19541223      15.17299761      15.15150881      15.13154718      15.11414875      15.09975678      15.08830765      15.07939223      15.07167707      15.06235404      15.05190093      15.04220618      15.03356074
        15.02674713      15.02187295      15.01877201      15.01692216      15.01589526      15.01534124      15.01502152      15.01499963      15.01523716      15.01562119      15.01605295      15.01626693      15.01633905      15.01631436      15.01626872      15.01635890      15.01674935      15.01731579      15.01796642      15.01872825
        15.01964753      15.02085855      15.02235071      15.02395806      15.02585156      15.02810621      15.03042193      15.03247855      15.03436765      15.03609343      15.03775271      15.03966585      15.04214270      15.04537647      15.04928557      15.05379739      15.05949915      15.06672804      15.07523092      15.08523412
        15.09658089      15.10907789      15.12197468      15.13432435      15.14427838      15.15017309      15.15212909      15.15173693      15.14920206      15.14360593      15.13565926      15.12830643      15.12189288      15.11756453      15.11596720      15.11683044      15.11892278      15.12118649      15.12378052      15.12706995
        15.13025593      15.13171613      15.13098266      15.12805194      15.12317178      15.11753526      15.11389580      15.11211318      15.11234192      15.11348854      15.11458985      15.11555970      15.11709732      15.11932312      15.12198716      15.12542973      15.12945778      15.13260424      15.13419739      15.13512796
        15.21235284      15.21387316      15.21711833      15.22019787      15.22143205      15.21906369      15.21008279      15.19364440      15.17416710      15.15547402      15.13852528      15.12385868      15.11149438      15.10156760      15.09320686      15.08555426      15.07625415      15.06509882      15.05439881      15.04457432
        15.03606237      15.02978081      15.02579813      15.02335046      15.02193281      15.02121145      15.02086790      15.02078004      15.02094854      15.02131630      15.02184565      15.02208803      15.02206730      15.02205461      15.02208379      15.02218879      15.02256751      15.02316142      15.02379667      15.02451242
        15.02547487      15.02677976      15.02840098      15.03015874      15.03223041      15.03470597      15.03717438      15.03929204      15.04128079      15.04314288      15.04507707      15.04735068      15.05028951      15.05405013      15.05855158      15.06389047      15.07094115      15.07965509      15.08954681      15.10091427
        15.11407877      15.12881929      15.14433867      15.15962100      15.17283205      15.18172861      15.18659469      15.18860441      15.18813519      15.18411892      15.17616897      15.16731821      15.15957515      15.15392317      15.15113484      15.15121536      15.15306625      15.15538155      15.15803388      15.16109065
        15.16416970      15.16647109      15.16717200      15.16538587      15.16116183      15.15588752      15.15124342      15.14830355      15.14772651      15.14956795      15.15213428      15.15432104      15.15611817      15.15778613      15.15893451      15.16095723      15.16426967      15.16781410      15.17027316      15.17109802
        15.20555487      15.20614049      15.20734503      15.20799116      15.20694356      15.20327493      15.19470574      15.18129515      15.16566357      15.15092046      15.13781259      15.12683409      15.11754158      15.10984390      15.10333670      15.09680992      15.08873877      15.07843904      15.06760840      15.05718852
        15.04745473      15.03947480      15.03432009      15.03119613      15.02932425      15.02836374      15.02802936      15.02797587      15.02812538      15.02840355      15.02890794      15.02910417      15.02890093      15.02878739      15.02879821      15.02889982      15.02930740      15.02990178      15.03053454      15.03116877
        15.03206518      15.03332879      15.03495645      15.03684458      15.03899135      15.04143890      15.04373127      15.04585945      15.04784524      15.04979970      15.05206408      15.05473429      15.05809291      15.06227756      15.06721261      15.07332253      15.08152019      15.09169120      15.10302416      15.11563873
        15.13002853      15.14655011      15.16444169      15.18292938      15.19960813      15.21247220      15.22126454      15.22657823      15.22914183      15.22726574      15.22038903      15.20996299      15.20087728      15.19434753      15.19025088      15.18878994      15.19014357      15.19286612      15.19586754      15.19908625
        15.20173090      15.20436528      15.20677510      15.20742173      15.20456947      15.19977625      15.19397807      15.18940383      15.18741824      15.18924743      15.19293720      15.19652752      15.19903194      15.20037701      15.20078954      15.20098061      15.20250673      15.20583987      15.20879572      15.20990731
        15.19209084      15.19189461      15.19154368      15.19041389      15.18773209      15.18283078      15.17461261      15.16337242      15.15149953      15.14098242      15.13182623      15.12452087      15.11862170      15.11363812      15.10951740      15.10521182      15.09936035      15.09122829      15.08160682      15.07136894
        15.06108244      15.05167144      15.04494170      15.04089109      15.03850045      15.03719242      15.03669785      15.03667326      15.03691201      15.03722163      15.03756570      15.03757346      15.03714730      15.03669588      15.03660398      15.03664915      15.03702004      15.03758044      15.03819250      15.03880608
        15.03955999      15.04059784      15.04207009      15.04392559      15.04610049      15.04836263      15.05042223      15.05243980      15.05433613      15.05642558      15.05884800      15.06178628      15.06543407      15.06995351      15.07520198      15.08195449      15.09117572      15.10245177      15.11480957      15.12838223
        15.14384266      15.16181053      15.18171385      15.20294249      15.22322747      15.24136186      15.25505487      15.26467276      15.27143797      15.27263586      15.26800962      15.25774111      15.24618884      15.23830816      15.23310152      15.23027246      15.23060638      15.23380142      15.23739114      15.24097528
        15.24345992      15.24646469      15.25044461      15.25346173      15.25353991      15.24926170      15.24277070      15.23616142      15.23220529      15.23274818      15.23684752      15.24167524      15.24520819      15.24682448      15.24721023      15.24607096      15.24548898      15.24709738      15.25015390      15.25179712
        15.17499307      15.17455968      15.17339829      15.17106945      15.16682098      15.16078554      15.15295448      15.14354802      15.13464606      15.12756559      15.12214198      15.11849208      15.11585484      15.11400101      15.11251520      15.11084094      15.10791281      15.10272054      15.09544796      15.08660171
        15.07663378      15.06646834      15.05810845      15.05284892      15.04963609      15.04789444      15.04698342      15.04678462      15.04715117      15.04760430      15.04775492      15.04758945      15.04696138      15.04613287      15.04582703      15.04572128      15.04582362      15.04615068      15.04661711      15.04714618
        15.04769880      15.04846478      15.04960163      15.05121073      15.05329439      15.05535713      15.05722537      15.05900629      15.06086639      15.06297668      15.06539770      15.06843746      15.07231518      15.07712158      15.08269682      15.08994393      15.09968844      15.11145470      15.12430499      15.13841084
        15.15474837      15.17402351      15.19597272      15.21984287      15.24411729      15.26693565      15.28593928      15.30079457      15.31294723      15.31923691      15.31845759      15.31115096      15.29814096      15.28718851      15.28051241      15.27630961      15.27524204      15.27787954      15.28215654      15.28559253
        15.28857861      15.29300965      15.29844406      15.30280490      15.30469490      15.30229705      15.29633619      15.28905034      15.28395762      15.28246345      15.28609946      15.29146418      15.29568559      15.29742198      15.29699291      15.29484427      15.29289432      15.29190271      15.29389369      15.29584907
        15.15688476      15.15636566      15.15482249      15.15156187      15.14608147      15.13941687      15.13137448      15.12324425      15.11628390      15.11162764      15.10936956      15.10953576      15.11047823      15.11186351      15.11323391      15.11413382      15.11406375      15.11211820      15.10778163      15.10124584
        15.09290162      15.08310214      15.07383623      15.06722221      15.06289152      15.06041874      15.05903795      15.05839478      15.05860542      15.05910719      15.05925902      15.05910827      15.05854284      15.05758032      15.05686965      15.05661411      15.05630689      15.05610073      15.05608142      15.05630021
        15.05657410      15.05693359      15.05768450      15.05889758      15.06069731      15.06248679      15.06405520      15.06563508      15.06745991      15.06949400      15.07195005      15.07499672      15.07903623      15.08408200      15.08999513      15.09754275      15.10726943      15.11882131      15.13173080      15.14630187
        15.16336575      15.18375593      15.20779010      15.23458871      15.26263152      15.28958811      15.31361127      15.33450805      15.35297351      15.36582749      15.37050469      15.36795778      15.35738098      15.34366151      15.33407383      15.32824601      15.32549912      15.32671047      15.33074419      15.33368213
        15.33749675      15.34323685      15.34926511      15.35421110      15.35649584      15.35625309      15.35235954      15.34644065      15.34101503      15.33870673      15.34114330      15.34669150      15.35036976      15.35138290      15.34959695      15.34626503      15.34270164      15.33936448      15.33863130      15.33960503
        15.13884213      15.13823648      15.13617639      15.13205600      15.12603459      15.11861325      15.10973195      15.10141764      15.09493552      15.09216120      15.09318574      15.09731756      15.10255900      15.10752457      15.11198844      15.11560084      15.11823160      15.11948859      15.11852076      15.11505997
        15.10932674      15.10116549      15.09199147      15.08418299      15.07858768      15.07495927      15.07292975      15.07162492      15.07133234      15.07165607      15.07195714      15.07195482      15.07162496      15.07067883      15.06964012      15.06917171      15.06853499      15.06759663      15.06680943      15.06642025
        15.06616993      15.06597746      15.06626028      15.06701056      15.06824676      15.06956120      15.07079798      15.07229026      15.07403502      15.07600561      15.07841821      15.08148246      15.08563021      15.09088691      15.09712210      15.10471838      15.11404578      15.12514023      15.13816753      15.15314691
        15.17061202      15.19167448      15.21742528      15.24740483      15.27923174      15.31033187      15.33950457      15.36679407      15.39221996      15.41261535      15.42452986      15.42900365      15.42412185      15.41025501      15.39670974      15.38836874      15.38338461      15.38227559      15.38492260      15.38784741
        15.39151351      15.39719360      15.40293450      15.40790038      15.41128342      15.41221690      15.41092112      15.40743685      15.40239284      15.39985882      15.40124158      15.40585614      15.40877261      15.40881301      15.40648448      15.40249490      15.39662159      15.39054232      15.38626979      15.38413830
        15.12203841      15.12131557      15.11879441      15.11420077      15.10778756      15.09925179      15.08884443      15.07789738      15.06879462      15.06612996      15.07197097      15.08125360      15.09164396      15.10116658      15.10925355      15.11593351      15.12137729      15.12554269      15.12791339      15.12794356
        15.12553591      15.11995685      15.11187029      15.10346210      15.09646038      15.09138630      15.08819782      15.08617457      15.08509750      15.08503623      15.08533051      15.08543066      15.08521530      15.08448630      15.08336267      15.08249805      15.08166733      15.08025750      15.07867908      15.07744509
        15.07644464      15.07565227      15.07511269      15.07519946      15.07570136      15.07643986      15.07748165      15.07884538      15.08046697      15.08237229      15.08465603      15.08774719      15.09205983      15.09757174      15.10405762      15.11153498      15.12036702      15.13105085      15.14416094      15.15955942
        15.17735207      15.19862900      15.22572156      15.25841924      15.29406962      15.32996116      15.36486671      15.39916567      15.43238493      15.46126405      15.48388400      15.49650014      15.49797813      15.48681506      15.47083248      15.45876152      15.45103350      15.44671887      15.44658082      15.44927483
        15.45203875      15.45631814      15.46113227      15.46523495      15.46947036      15.47192304      15.47332734      15.47185131      15.46859065      15.46525634      15.46522624      15.46788527      15.47012923      15.46992550      15.46741655      15.46270847      15.45528197      15.44665559      15.43930292      15.43510884
        15.10807748      15.10700141      15.10431040      15.09941574      15.09235447      15.08255068      15.06956481      15.05355639      15.03716534      15.02921512      15.04402299      15.06231546      15.07884719      15.09348078      15.10578919      15.11600752      15.12450401      15.13144393      15.13685494      15.14020505
        15.14112090      15.13844454      15.13236986      15.12433469      15.11629795      15.10947333      15.10464586      15.10146129      15.09938938      15.09861397      15.09861415      15.09872982      15.09861889      15.09823473      15.09733042      15.09618075      15.09501602      15.09335171      15.09122947      15.08909250
        15.08734934      15.08580410      15.08431524      15.08343851      15.08314927      15.08337912      15.08418850      15.08528708      15.08670321      15.08854511      15.09078411      15.09396553      15.09852945      15.10422963      15.11074546      15.11796433      15.12629340      15.13660184      15.14980015      15.16562470
        15.18372366      15.20526302      15.23303919      15.26751834      15.30677130      15.34852071      15.39012249      15.43204192      15.47371028      15.51278330      15.54757850      15.56963420      15.57765715      15.57099663      15.55475198      15.53835128      15.52730587      15.52034649      15.51645907      15.51673774
        15.51823457      15.51948290      15.52199535      15.52512224      15.52871985      15.53240788      15.53565273      15.53591916      15.53511020      15.53157924      15.52932497      15.52943980      15.53053181      15.53025104      15.52735354      15.52178340      15.51426632      15.50504207      15.49582268      15.49120123
        15.09696469      15.09552813      15.09259100      15.08747450      15.07995857      15.06900486      15.05325907      15.03079100      15.00159077      14.97279880      15.00832313      15.04225485      15.06673620      15.08623074      15.10244614      15.11633846      15.12825517      15.13807449      15.14638013      15.15264600
        15.15624622      15.15641473      15.15265852      15.14581645      15.13730118      15.12880324      15.12212353      15.11707943      15.11366806      15.11186077      15.11134571      15.11138979      15.11140025      15.11131048      15.11072010      15.10943873      15.10778143      15.10573593      15.10332091      15.10057273
        15.09818660      15.09598383      15.09368632      15.09179448      15.09062048      15.09034306      15.09078119      15.09159606      15.09281540      15.09457987      15.09695273      15.10033412      15.10501412      15.11068402      15.11700991      15.12393309      15.13196145      15.14190298      15.15488504      15.17116433
        15.18978337      15.21183154      15.24012438      15.27591418      15.31864145      15.36648116      15.41600634      15.46607375      15.51623206      15.56636766      15.61333765      15.64772551      15.66360369      15.66344437      15.64866495      15.62893805      15.61297998      15.60287152      15.59501784      15.59077389
        15.58956495      15.58762993      15.58701656      15.58810771      15.58933638      15.59208359      15.59592549      15.59838879      15.59933366      15.59669457      15.59235182      15.58974434      15.58856625      15.58709723      15.58437101      15.57914469      15.57195461      15.56360089      15.55510522      15.55016526
        15.08826835      15.08671061      15.08361968      15.07866222      15.07128234      15.06035967      15.04389845      15.01716585      14.97092496      14.86488450      14.97457050      15.02839026      15.05933326      15.08138147      15.10029042      15.11748531      15.13281436      15.14600398      15.15725289      15.16603582
        15.17176942      15.17440016      15.17272801      15.16717788      15.15875451      15.14888138      15.14014578      15.13301776      15.12778647      15.12456504      15.12321396      15.12294728      15.12301016      15.12302940      15.12255594      15.12111527      15.11911483      15.11669245      15.11397218      15.11103696
        15.10818090      15.10554330      15.10277106      15.10008465      15.09805493      15.09712555      15.09709546      15.09767314      15.09880649      15.10053737      15.10308235      15.10660242      15.11124113      15.11682489      15.12291465      15.12959703      15.13736282      15.14697986      15.15960558      15.17597869
        15.19549482      15.21862148      15.24795043      15.28538853      15.33123752      15.38444821      15.44171924      15.50056668      15.56072666      15.62225835      15.68304242      15.73182475      15.75850673      15.76547740      15.75432912      15.73361140      15.71081792      15.69404107      15.68015263      15.67101884
        15.66561897      15.66094441      15.65692816      15.65507232      15.65395168      15.65385153      15.65624514      15.66050906      15.66171128      15.65932589      15.65382691      15.64871270      15.64464986      15.64097550      15.63843343      15.63474404      15.62893641      15.62203024      15.61564730      15.61119406
        15.08168899      15.08015412      15.07722978      15.07283175      15.06651182      15.05733243      15.04425799      15.02537167      15.00050632      14.97661635      15.00598468      15.03630380      15.06079136      15.08116692      15.10021000      15.11953334      15.13836513      15.15537720      15.16980178      15.18088101
        15.18841292      15.19283826      15.19293775      15.18831367      15.18007983      15.16922872      15.15844831      15.14920599      15.14204173      15.13706403      15.13433365      15.13326873      15.13306398      15.13297925      15.13240216      15.13085303      15.12856625      15.12591155      15.12297523      15.12001016
        15.11698222      15.11403681      15.11109950      15.10802800      15.10539880      15.10383582      15.10334573      15.10368191      15.10475394      15.10648016      15.10904676      15.11257671      15.11718798      15.12261007      15.12838928      15.13473385      15.14238436      15.15186305      15.16432383      15.18086269
        15.20106705      15.22566014      15.25677298      15.29607824      15.34480827      15.40298688      15.46741484      15.53573002      15.60743559      15.68188869      15.75638111      15.82120313      15.86326677      15.87865029      15.87223030      15.85018021      15.81825324      15.79210370      15.77024817      15.75535439
        15.74442291      15.73673284      15.73002051      15.72550061      15.72225909      15.71915523      15.71834826      15.72071486      15.72120871      15.71783861      15.71132753      15.70450034      15.69843483      15.69311517      15.68947596      15.68725865      15.68437256      15.67953864      15.67450754      15.67137551
        15.07696600      15.07557928      15.07310866      15.06962623      15.06483768      15.05809815      15.04926412      15.03846868      15.02741690      15.02248271      15.03367531      15.05006111      15.06712768      15.08420904      15.10222451      15.12244836      15.14458845      15.16569864      15.18326754      15.19639460
        15.20614248      15.21216887      15.21343475      15.20964185      15.20139634      15.18982063      15.17719059      15.16566496      15.15646431      15.14967868      15.14515845      15.14281935      15.14185759      15.14126443      15.14040590      15.13875573      15.13626118      15.13336604      15.13030618      15.12724333
        15.12423851      15.12120593      15.11832489      15.11531751      15.11250974      15.11046974      15.10957238      15.10967597      15.11061471      15.11225713      15.11474516      15.11819985      15.12269155      15.12789969      15.13339491      15.13943928      15.14701446      15.15662093      15.16937817      15.18614831
        15.20684381      15.23253134      15.26574560      15.30826087      15.36004050      15.42210101      15.49371904      15.57211843      15.65592624      15.74345344      15.83235072      15.91489729      15.97372207      16.00175950      16.00179430      15.97909475      15.93900624      15.89954553      15.86722526      15.84307891
        15.82572346      15.81430318      15.80558954      15.79864328      15.79298265      15.78740764      15.78285148      15.77981652      15.77784153      15.77326988      15.76472887      15.75601327      15.74921320      15.74371859      15.73915965      15.73756235      15.73676910      15.73454948      15.73120106      15.72922897
        15.07374577      15.07261104      15.07068020      15.06813412      15.06479760      15.06041532      15.05506228      15.04957933      15.04544332      15.04540806      15.05170927      15.06178964      15.07407846      15.08839083      15.10525113      15.12552932      15.14980352      15.17471420      15.19567243      15.21167524
        15.22417756      15.23200545      15.23401166      15.23073667      15.22248034      15.21053089      15.19650382      15.18248345      15.17076625      15.16220633      15.15600767      15.15207266      15.14990867      15.14840924      15.14693360      15.14497028      15.14230182      15.13916982      15.13590374      15.13271716