# File generated by Flopy version 3.6.0 on 03/03/2025 at 11:21:33.
BEGIN griddata
  strt
    INTERNAL  FACTOR  1.0
        15.00000000      15.00000000      15.00000000      15.00000000      15.00000000      15.00000000      15.00000000      15.00000000      15.00000000      15.00000000      15.00000000      15.00000000      15.00000000      15.00000000      15.00000000      15.00000000      15.00000000      15.00000000      15.00000000      15.00000000
        15.00000000      15.00000000      15.00000000      15.00000000      15.00000000      15.00000000      15.00000000      15.00000000      15.00000000      15.00000000      15.00000000      15.00000000      15.00000000      15.00000000      15.00000000      15.00000000      15.00000000      15.00000000      15.00000000      15.00000000
        15.00000000      15.00000000      15.00000000      15.00000000      15.00000000      15.00000000      15.00000000      15.00000000      15.00000000      15.00000000      15.00000000      15.00000000      15.00000000      15.00000000      15.00000000      15.00000000      15.00000000      15.00000000      15.00000000      15.00000000
        15.00000000      15.00000000      15.00000000      15.00000000      15.00000000      15.00000000      15.00000000      15.00000000      15.00000000      15.00000000      15.00000000      15.00000000      15.00000000      15.00000000      15.00000000      15.00000000      15.00000000      15.00000000      15.00000000      15.00000000
        15.00000000      15.00000000      15.00000000      15.00000000      15.00000000      15.00000000      15.00000000      15.00000000      15.00000000      15.00000000      15.00000000      15.00000000      15.00000000      15.00000000      15.00000000      15.00000000      15.00000000      15.00000000      15.00000000      15.00000000
        15.03407473      15.03522942      15.03764481      15.04084296      15.04404709      15.04616705      15.04435996      15.03956486      15.03398815      15.02791946      15.02264828      15.01812380      15.01451972      15.01230032      15.01098826      15.00971724      15.00819862      15.00639833      15.00478211      15.00359769
        15.00263251      15.00188556      15.00140581      15.00114548      15.00097400      15.00084936      15.00076015      15.00070067      15.00067288      15.00065883      15.00064260      15.00062108      15.00059063      15.00055919      15.00054083      15.00053001      15.00051223      15.00049162      15.00046089      15.00042730
        15.00040654      15.00039212      15.00037759      15.00037593      15.00039398      15.00041320      15.00044328      15.00050239      15.00060270      15.00074645      15.00093868      15.00121447      15.00162246      15.00223616      15.00307074      15.00406494      15.00514692      15.00645296      15.00812433      15.01009343
        15.01226353      15.01496465      15.01776029      15.02036810      15.02195208      15.02247254      15.02262838      15.02231653      15.02127068      15.01960920      15.01826573      15.01710379      15.01621323      15.01597099      15.01590164      15.01602663      15.01671757      15.01780584      15.01906388      15.02036509
        15.02108650      15.02054894      15.01946632      15.01773861      15.01633115      15.01558205      15.01549500      15.01570193      15.01565855      15.01575399      15.01578517      15.01603354      15.01670073      15.01739956      15.01840732      15.01963755      15.02041222      15.02076674      15.02094878      15.02071471
        15.05216037      15.05385574      15.05717941      15.06170101      15.06679359      15.07039607      15.06861244      15.06150919      15.05294961      15.04400135      15.03577493      15.02914082      15.02369403      15.01996172      15.01763487      15.01567169      15.01343229      15.01083341      15.00830956      15.00632802
        15.00475711      15.00353453      15.00271402      15.00222629      15.00191255      15.00167449      15.00150261      15.00138539      15.00131701      15.00127743      15.00123946      15.00119418      15.00114109      15.00108069      15.00103063      15.00100456      15.00097535      15.00092758      15.00086954      15.00079855
        15.00074017      15.00070305      15.00066916      15.00064959      15.00066408      15.00069243      15.00074186      15.00083192      15.00098282      15.00120344      15.00151760      15.00197950      15.00264972      15.00363464      15.00502591      15.00676704      15.00877798      15.01114518      15.01405368      15.01763114
        15.02169539      15.02630654      15.03119185      15.03601325      15.03983676      15.04168333      15.04240463      15.04240085      15.04125722      15.03931688      15.03735142      15.03557236      15.03420882      15.03370632      15.03380920      15.03435112      15.03557522      15.03711425      15.03891212      15.04099592
        15.04235230      15.04218967      15.04085079      15.03855356      15.03591406      15.03387021      15.03286611      15.03293545      15.03306365      15.03306959      15.03304773      15.03315610      15.03409798      15.03527192      15.03693049      15.03909916      15.04078455      15.04184858      15.04223110      15.04210722
        15.05729238      15.05918665      15.06312947      15.06810866      15.07332088      15.07695578      15.07576713      15.06854964      15.05924365      15.04997446      15.04126637      15.03401187      15.02810458      15.02384360      15.02108645      15.01894215      15.01651001      15.01369773      15.01092589      15.00849603
        15.00653496      15.00499321      15.00395276      15.00328638      15.00284729      15.00250699      15.00223450      15.00204662      15.00193043      15.00185107      15.00178390      15.00170606      15.00162957      15.00155124      15.00148049      15.00142804      15.00138165      15.00130355      15.00120505      15.00109248
        15.00099001      15.00091339      15.00085157      15.00080853      15.00080244      15.00082397      15.00087703      15.00097658      15.00114301      15.00140025      15.00179256      15.00237866      15.00321374      15.00442070      15.00613682      15.00841104      15.01120933      15.01457555      15.01853982      15.02337058
        15.02896122      15.03531496      15.04219875      15.04908107      15.05502029      15.05874070      15.06067872      15.06144158      15.06112461      15.05958505      15.05743988      15.05555903      15.05384116      15.05296451      15.05318262      15.05426101      15.05593248      15.05762304      15.05952511      15.06191252
        15.06373630      15.06422260      15.06309555      15.06086228      15.05748722      15.05425300      15.05227700      15.05173298      15.05195859      15.05203650      15.05199002      15.05202237      15.05291887      15.05434132      15.05637225      15.05883275      15.06116980      15.06277935      15.06336190      15.06360952
        15.05202476      15.05363574      15.05756145      15.06208970      15.06637600      15.06930449      15.06869743      15.06312029      15.05515796      15.04707327      15.03944052      15.03298227      15.02783604      15.02418086      15.02176932      15.01997061      15.01791946      15.01533454      15.01270398      15.01018174
        15.00803143      15.00633810      15.00514542      15.00434459      15.00377991      15.00334016      15.00297078      15.00268969      15.00250397      15.00237732      15.00227711      15.00216381      15.00205809      15.00196384      15.00187741      15.00179347      15.00171066      15.00159112      15.00144041      15.00128127
        15.00113778      15.00101688      15.00091655      15.00084302      15.00081070      15.00081101      15.00085106      15.00094708      15.00111423      15.00138468      15.00181911      15.00248617      15.00343752      15.00478320      15.00668574      15.00931810      15.01282067      15.01715329      15.02209303      15.02784857
        15.03470313      15.04270182      15.05136851      15.06030869      15.06838203      15.07439542      15.07817515      15.08038914      15.08147000      15.08090836      15.07890459      15.07689054      15.07498101      15.07385646      15.07395682      15.07525681      15.07705732      15.07884106      15.08075543      15.08304907
        15.08519015      15.08614843      15.08560382      15.08355321      15.08017871      15.07627739      15.07369781      15.07230752      15.07222152      15.07274471      15.07326388      15.07370227      15.07450673      15.07575865      15.07731816      15.07940700      15.08188047      15.08381852      15.08479876      15.08538747
        15.03826363      15.03944486      15.04221494      15.04555540      15.04870881      15.05129837      15.05154869      15.04831821      15.04280358      15.03685871      15.03121690      15.02669979      15.02334269      15.02097066      15.01956246      15.01852983      15.01731649      15.01552778      15.01349271      15.01133993
        15.00928143      15.00754810      15.00627783      15.00536744      15.00468457      15.00414542      15.00369364      15.00331980      15.00304752      15.00285110      15.00270152      15.00255019      15.00240876      15.00228986      15.00218169      15.00206382      15.00193049      15.00175633      15.00155562      15.00134985
        15.00116315      15.00099556      15.00085249      15.00074562      15.00068445      15.00065792      15.00067799      15.00076536      15.00093142      15.00120703      15.00165866      15.00238423      15.00343840      15.00487733      15.00684930      15.00973377      15.01381997      15.01897727      15.02483625      15.03152559
        15.03943907      15.04880416      15.05922245      15.07021860      15.08064292      15.08900025      15.09507080      15.09928153      15.10225484      15.10341324      15.10225811      15.10016266      15.09811702      15.09669708      15.09642313      15.09745805      15.09921901      15.10109370      15.10308285      15.10525903
        15.10733666      15.10882235      15.10917162      15.10780266      15.10477188      15.10101512      15.09770252      15.09547853      15.09478877      15.09567491      15.09705499      15.09820662      15.09912636      15.09998646      15.10056259      15.10173953      15.10375295      15.10593812      15.10746324      15.10798821
        15.01871105      15.01937715      15.02089603      15.02305258      15.02540492      15.02784456      15.02871416      15.02764310      15.02497326      15.02200997      15.01900052      15.01668691      15.01534808      15.01448079      15.01420719      15.01432097      15.01439886      15.01403545      15.01316093      15.01182803
        15.01027060      15.00866673      15.00735336      15.00637125      15.00558343      15.00492836      15.00437999      15.00391145      15.00354950      15.00326393      15.00303912      15.00283752      15.00265717      15.00250224      15.00235979      15.00220265      15.00201600      15.00178196      15.00152749      15.00127329
        15.00103683      15.00081875      15.00062919      15.00048366      15.00039359      15.00034756      15.00036314      15.00044562      15.00061279      15.00089277      15.00134683      15.00210239      15.00324031      15.00477969      15.00678750      15.00977992      15.01425081      15.02005323      15.02675541      15.03436199
        15.04321693      15.05375180      15.06570966      15.07882165      15.09162345      15.10281792      15.11188991      15.11875896      15.12430396      15.12757528      15.12792498      15.12579461      15.12372716      15.12237199      15.12167142      15.12193592      15.12347134      15.12565816      15.12788788      15.13016357
        15.13193537      15.13361216      15.13503795      15.13520007      15.13297955      15.12943131      15.12525670      15.12184089      15.12011410      15.12087997      15.12289171      15.12486560      15.12617521      15.12679431      15.12688361      15.12689473      15.12777776      15.12982837      15.13166730      15.13237460
        14.99591824      14.99618643      14.99703592      14.99854720      15.00040218      15.00253307      15.00418459      15.00464406      15.00450626      15.00456941      15.00441919      15.00431996      15.00467720      15.00548482      15.00640655      15.00772856      15.00930731      15.01071554      15.01148434      15.01145168
        15.01080509      15.00965017      15.00838913      15.00734923      15.00646567      15.00567244      15.00498884      15.00440541      15.00394318      15.00355903      15.00324113      15.00297975      15.00275901      15.00256342      15.00237587      15.00216770      15.00191107      15.00159659      15.00127120      15.00096294
        15.00068709      15.00043574      15.00021129      15.00003318      14.99991463      14.99985975      14.99988220      14.99996800      15.00014480      15.00043370      15.00089588      15.00165986      15.00285504      15.00448213      15.00654467      15.00956034      15.01422762      15.02039067      15.02755976      15.03582836
        15.04558297      15.05723065      15.07061395      15.08550844      15.10074793      15.11541122      15.12802274      15.13824333      15.14718658      15.15334091      15.15603595      15.15500324      15.15236610      15.15078632      15.14971363      15.14926398      15.15018980      15.15268625      15.15527113      15.15775991
        15.15939592      15.16128171      15.16368694      15.16533542      15.16493808      15.16159723      15.15681249      15.15190430      15.14873200      15.14852800      15.15069568      15.15337999      15.15528804      15.15604138      15.15609034      15.15524895      15.15479497      15.15575456      15.15765276      15.15869181
        14.97093561      14.97146718      14.97234032      14.97364302      14.97492139      14.97672098      14.97929393      14.98159182      14.98368542      14.98599682      14.98827385      14.99054334      14.99242444      14.99485458      14.99725423      14.99974631      15.00268779      15.00583854      15.00839634      15.00992975
        15.01053470      15.01018702      15.00922941      15.00822762      15.00726497      15.00633545      15.00548529      15.00474808      15.00416224      15.00366718      15.00325546      15.00292611      15.00265975      15.00241750      15.00216461      15.00188181      15.00153855      15.00113648      15.00073991      15.00037862
        15.00007664      14.99980887      14.99957248      14.99938056      14.99923751      14.99917744      14.99921023      14.99931593      14.99950109      14.99979987      15.00027788      15.00104670      15.00227382      15.00397871      15.00612449      15.00913697      15.01373927      15.01995123      15.02730427      15.03582808
        15.04617991      15.05882778      15.07375751      15.09056872      15.10850052      15.12633189      15.14260968      15.15681946      15.17001189      15.18040762      15.18663056      15.18846146      15.18584595      15.18298222      15.18124749      15.17999122      15.17999533      15.18208211      15.18505320      15.18736913
        15.18926303      15.19202404      15.19531385      15.19774992      15.19842142      15.19616520      15.19155449      15.18601077      15.18189030      15.18017858      15.18190527      15.18484200      15.18712731      15.18791946      15.18742884      15.18593083      15.18459513      15.18390582      15.18512762      15.18635943
        14.94534939      14.94620967      14.94742377      14.94868830      14.94965576      14.95170238      14.95475399      14.95888034      14.96305298      14.96717989      14.97115459      14.97558461      14.97942526      14.98333863      14.98729537      14.99098258      14.99493298      14.99938229      15.00359511      15.00675393
        15.00888023      15.00980434      15.00959230      15.00885835      15.00790959      15.00686500      15.00587067      15.00495453      15.00420045      15.00356499      15.00303858      15.00261357      15.00226915      15.00195585      15.00162279      15.00123942      15.00080540      15.00032203      14.99986292      14.99945068
        14.99912435      14.99886477      14.99863962      14.99846634      14.99832373      14.99826885      14.99832355      14.99844881      14.99863908      14.99894980      14.99942962      15.00021179      15.00144787      15.00318764      15.00542560      15.00844022      15.01285441      15.01881740      15.02614036      15.03482855
        15.04551213      15.05891159      15.07538099      15.09440794      15.11501679      15.13584134      15.15569250      15.17440327      15.19259600      15.20832823      15.21930529      15.22521415      15.22500832      15.22098916      15.21757941      15.21523745      15.21401413      15.21500602      15.21767905      15.21953183
        15.22185111      15.22535798      15.22891493      15.23161374      15.23241146      15.23142327      15.22799394      15.22311380      15.21853101      15.21605258      15.21681127      15.21974615      15.22162672      15.22191990      15.22054067      15.21826600      15.21589162      15.21371199      15.21321406      15.21382607
        14.91922972      14.92034395      14.92155653      14.92275138      14.92417805      14.92653830      14.92983514      14.93504658      14.94100560      14.94719822      14.95279736      14.95874560      14.96479738      14.97040573      14.97593313      14.98107711      14.98611445      14.99149358      14.99708055      15.00194123
        15.00578947      15.00834175      15.00932735      15.00920775      15.00845079      15.00734131      15.00618855      15.00504773      15.00405506      15.00321888      15.00252587      15.00196035      15.00149614      15.00108347      15.00064462      15.00012152      14.99956647      14.99900765      14.99849835      14.99805109
        14.99773751      14.99752916      14.99734506      14.99721489      14.99711875      14.99709993      14.99718712      14.99731770      14.99751371      14.99783921      14.99832595      14.99910299      15.00034265      15.00206843      15.00432609      15.00730384      15.01148732      15.01722022      15.02454560      15.03337206
        15.04413268      15.05784467      15.07548518      15.09683590      15.12034454      15.14432957      15.16807611      15.19168979      15.21541419      15.23726867      15.25449194      15.26638941      15.27073656      15.26693284      15.26091404      15.25673471      15.25374892      15.25289876      15.25437912      15.25599865
        15.25801329      15.26131447      15.26453220      15.26709988      15.26846633      15.26808003      15.26614715      15.26260562      15.25798032      15.25506455      15.25491925      15.25711571      15.25843774      15.25806806      15.25631265      15.25359947      15.24975356      15.24583610      15.24310996      15.24177544
        14.89343245      14.89468741      14.89579350      14.89701918      14.89901900      14.90168066      14.90517849      14.91014127      14.91651566      14.92436452      14.93201920      14.93924804      14.94723485      14.95520732      14.96288056      14.97004893      14.97670754      14.98316649      14.98991268      14.99626515
        15.00172647      15.00599946      15.00847889      15.00930580      15.00890294      15.00775666      15.00641323      15.00500323      15.00370673      15.00260198      15.00168827      15.00094148      15.00032341      14.99975363      14.99914498      14.99844607      14.99770811      14.99703524      14.99647524      14.99602162
        14.99576069      14.99562165      14.99556806      14.99553920      14.99555129      14.99562040      14.99573463      14.99588758      14.99609996      14.99643298      14.99695431      14.99772029      14.99892875      15.00062761      15.00282206      15.00568747      15.00962105      15.01516353      15.02252994      15.03155203
        15.04238490      15.05608889      15.07450888      15.09779961      15.12430187      15.15211365      15.18028894      15.20943824      15.23953810      15.26835100      15.29456951      15.31363788      15.32297370      15.32102373      15.31313595      15.30603809      15.30073698      15.29726492      15.29646774      15.29762998
        15.29876465      15.30090690      15.30332357      15.30513281      15.30686349      15.30725435      15.30683512      15.30432900      15.30053230      15.29676705      15.29545353      15.29625570      15.29708164      15.29651642      15.29461358      15.29142482      15.28658855      15.28106105      15.27640016      15.27377746
        14.86988433      14.87067831      14.87174664      14.87283941      14.87472533      14.87746027      14.88103586      14.88529413      14.89053332      14.89851025      14.90829248      14.91744962      14.92676650      14.93712309      14.94762055      14.95770448      14.96676869      14.97505316      14.98302977      14.99070096
        14.99751730      15.00322301      15.00714670      15.00907172      15.00922480      15.00811338      15.00654678      15.00481391      15.00316927      15.00173159      15.00055141      14.99957375      14.99874004      14.99792598      14.99705177      14.99609909      14.99511123      14.99424460      14.99357530      14.99313006
        14.99291005      14.99288115      14.99305303      14.99326619      14.99348141      14.99368326      14.99385725      14.99408238      14.99435212      14.99468816      14.99523274      14.99601083      14.99717014      14.99882337      15.00094816      15.00367268      15.00732530      15.01258641      15.02001842      15.02936848
        15.04038463      15.05419932      15.07293208      15.09746873      15.12671723      15.15917693      15.19278824      15.22800841      15.26500784      15.30228983      15.33868155      15.36599372      15.38068667      15.38176399      15.37324078      15.36252253      15.35432999      15.34845714      15.34454857      15.34365765
        15.34362070      15.34345366      15.34410008      15.34502902      15.34607947      15.34701271      15.34752215      15.34584645      15.34330714      15.33908326      15.33606385      15.33509620      15.33512370      15.33447239      15.33230134      15.32855495      15.32365135      15.31774158      15.31190910      15.30902846
        14.84862400      14.84861526      14.84908946      14.84966271      14.85101703      14.85321396      14.85639443      14.86043647      14.86481178      14.87149659      14.88157606      14.89265152      14.90328445      14.91567443      14.92909803      14.94267902      14.95515788      14.96621947      14.97607596      14.98517819
        14.99331418      15.00032982      15.00559249      15.00860702      15.00942656      15.00845388      15.00666424      15.00455463      15.00249945      15.00066384      14.99912934      14.99784088      14.99670767      14.99554942      14.99428859      14.99298867      14.99172857      14.99061815      14.98972807      14.98921133
        14.98898661      14.98906850      14.98953818      14.99015488      14.99073474      14.99115298      14.99147125      14.99181406      14.99218589      14.99255901      14.99307305      14.99383928      14.99496445      14.99656414      14.99863553      15.00129994      15.00478210      15.00972357      15.01698806      15.02674128
        15.03828160      15.05245732      15.07152400      15.09688702      15.12861877      15.16570364      15.20574345      15.24770795      15.29170794      15.33817161      15.38487505      15.42266067      15.44384530      15.44953416      15.44150060      15.42767103      15.41519582      15.40637727      15.39908047      15.39459190
        15.39234029      15.38970851      15.38794399      15.38721532      15.38636564      15.38631959      15.38688574      15.38627806      15.38454273      15.38062922      15.37603926      15.37318780      15.37170153      15.37026729      15.36818116      15.36462843      15.35991377      15.35454088      15.34915337      15.34607176
        14.82913769      14.82848984      14.82784639      14.82772172      14.82838618      14.82992224      14.83229682      14.83589053      14.83994428      14.84502600      14.85326983      14.86459949      14.87658362      14.89012696      14.90620316      14.92367620      14.94044911      14.95527800      14.96820260      14.97934945
        14.98918673      14.99759734      15.00413190      15.00814941      15.00959624      15.00880491      15.00682352      15.00430588      15.00174169      14.99940701      14.99743440      14.99576282      14.99422888      14.99262861      14.99091656      14.98923562      14.98760516      14.98613525      14.98493136      14.98416573
        14.98390907      14.98407923      14.98481856      14.98595170      14.98709997      14.98793144      14.98852748      14.98902919      14.98949981      14.98995460      14.99044448      14.99117351      14.99228008      14.99380700      14.99582145      14.99851779      15.00204891      15.00678947      15.01380316      15.02360998
        15.03591806      15.05096420      15.07079200      15.09723468      15.13109420      15.17211458      15.21814832      15.26736948      15.31978377      15.37578874      15.43400377      15.48379900      15.51393858      15.52500114      15.51914829      15.50378809      15.48542008      15.47097936      15.45872736      15.45025419
        15.44466042      15.43978095      15.43535206      15.43229817      15.42948921      15.42708592      15.42625721      15.42644022      15.42456993      15.42060097      15.41508573      15.41049338      15.40709949      15.40421545      15.40220672      15.39959317      15.39571829      15.39122156      15.38713358      15.38434731
        14.81125330      14.81002699      14.80835388      14.80722122      14.80729505      14.80831175      14.80997188      14.81268799      14.81608354      14.81976875      14.82574582      14.83536056      14.84774500      14.86188282      14.87936780      14.90033178      14.92240608      14.94187349      14.95875134      14.97277429
        14.98483089      14.99495467      15.00267120      15.00765506      15.00970345      15.00910164      15.00694734      15.00399884      15.00087478      14.99795562      14.99546013      14.99334853      14.99135112      14.98924084      14.98702787      14.98484085      14.98271989      14.98075585      14.97911266      14.97794402
        14.97758633      14.97790448      14.97886169      14.98049105      14.98229506      14.98372352      14.98474290      14.98551450      14.98613743      14.98671911      14.98728942      14.98803148      14.98913975      14.99063984      14.99254906      14.99518585      14.99890841      15.00374320      15.01063973      15.02044424
        15.03316849      15.04936568      15.07059663      15.09841343      15.13422427      15.17885136      15.23035998      15.28709184      15.34899152      15.41578062      15.48528373      15.54820907      15.59107969      15.60899924      15.60644478      15.58933942      15.56331297      15.54116144      15.52242737      15.50921905
        15.49924342      15.49186853      15.48520574      15.47995619      15.47533008      15.47044625      15.46691083      15.46539638      15.46279084      15.45797442      15.45165627      15.44585354      15.44110006      15.43709115      15.43431550      15.43257446      15.43049146      15.42725633      15.42398918      15.42201936
        14.79505761      14.79342067      14.79113668      14.78921524      14.78854009      14.78881836      14.78992868      14.79163238      14.79411105      14.79697179      14.80144457      14.80897703      14.82006994      14.83410668      14.85174733      14.87426511      14.90107711      14.92648720      14.94759498      14.96487172
        14.97949701      14.99184978      15.00096079      15.00687938      15.00952088      15.00918037      15.00691342      15.00346986      14.99971322      14.99617810      14.99313943      14.99050979      14.98796964      14.98533261      14.98254331      14.97973370      14.97700936      14.97442398      14.97218719      14.97067166
        14.97017460      14.97063756      14.97172070      14.97366029      14.97602148      14.97820048      14.97982211      14.98099891      14.98191966      14.98275086      14.98352765      14.98439460      14.98553996      14.98708511      14.98897652      14.99146171      14.99513606      15.00019229      15.00724314      15.01716175
        15.03020896      15.04728293      15.07025450      15.10057864      15.13863848      15.18604926      15.24296573      15.30744140      15.37883930      15.45612932      15.53760616      15.61527530      15.67206892      15.70038440      15.70286153      15.68483929      15.65189602      15.61893723      15.59174030      15.57118666
        15.55608598      15.54562194      15.53715681      15.52983603      15.52314130      15.51607935      15.50942564      15.50377975      15.49921192      15.49345342      15.48568889      15.47854600      15.47321490      15.46898756      15.46553330      15.46410655      15.46329435      15.46166493      15.45942814      15.45817842
        14.78030487      14.77857007      14.77601574      14.77376598      14.77229344      14.77168075      14.77208946      14.77303235      14.77468366      14.77701680      14.78051385      14.78650617      14.79584661      14.80901019      14.82574518      14.84794977      14.87675466      14.90769048      14.93385058      14.95502694
        14.97270541      14.98736417      14.99819340      15.00515396      15.00842320      15.00846969      15.00627169      15.00241368      14.99804042      14.99389812      14.99025804      14.98700925      14.98391552      14.98074421      14.97737740      14.97390787      14.97040118      14.96704927      14.96425168      14.96256597