# File generated by Flopy version 3.7.0 on 06/14/2024 at 13:20:03.
BEGIN options
END options

BEGIN griddata
  strt
    INTERNAL  FACTOR  1.0
        15.00000000      15.00000000      15.00000000      15.00000000      15.00000000      15.00000000      15.00000000      15.00000000      15.00000000      15.00000000      15.00000000      15.00000000      15.00000000      15.00000000      15.00000000      15.00000000      15.00000000      15.00000000      15.00000000      15.00000000
        15.00000000      15.00000000      15.00000000      15.00000000      15.00000000      15.00000000      15.00000000      15.00000000      15.00000000      15.00000000      15.00000000      15.00000000      15.00000000      15.00000000      15.00000000      15.00000000      15.00000000      15.00000000      15.00000000      15.00000000
        15.00000000      15.00000000      15.00000000      15.00000000      15.00000000      15.00000000      15.00000000      15.00000000      15.00000000      15.00000000      15.00000000      15.00000000      15.00000000      15.00000000      15.00000000      15.00000000      15.00000000      15.00000000      15.00000000      15.00000000
        15.00000000      15.00000000      15.00000000      15.00000000      15.00000000      15.00000000      15.00000000      15.00000000      15.00000000      15.00000000      15.00000000      15.00000000      15.00000000      15.00000000      15.00000000      15.00000000      15.00000000      15.00000000      15.00000000      15.00000000
        15.00000000      15.00000000      15.00000000      15.00000000      15.00000000      15.00000000      15.00000000      15.00000000      15.00000000      15.00000000      15.00000000      15.00000000      15.00000000      15.00000000      15.00000000      15.00000000      15.00000000      15.00000000      15.00000000      15.00000000
        15.07843234      15.08192148      15.08542405      15.08793043      15.09015318      15.09303918      15.09456375      15.09396210      15.09014661      15.08602693      15.08316336      15.07966956      15.07478667      15.06939093      15.06471497      15.05982870      15.05482384      15.05002329      15.04568355      15.04253967
        15.04071196      15.03974971      15.03932796      15.03933227      15.03996807      15.04083044      15.04143631      15.04240741      15.04308225      15.04224025      15.04001894      15.03742872      15.03463515      15.03208957      15.02992889      15.02817177      15.02696727      15.02609823      15.02549352      15.02531053
        15.02582216      15.02696785      15.02860510      15.03017404      15.03193873      15.03444675      15.03688414      15.03889313      15.04066439      15.04210806      15.04267261      15.04274148      15.04157344      15.04014250      15.03884598      15.03769509      15.03682418      15.03647948      15.03695275      15.03784754
        15.03826298      15.03802492      15.03767209      15.03746913      15.03723436      15.03693197      15.03639100      15.03589804      15.03628158      15.03776354      15.04055045      15.04411958      15.04875672      15.05538136      15.06215615      15.06850789      15.07365203      15.07682568      15.07851353      15.07897739
        15.07853627      15.07615053      15.07161434      15.06657168      15.06113450      15.05544637      15.05004095      15.04563582      15.04190833      15.03841576      15.03537346      15.03194634      15.02881683      15.02622859      15.02435315      15.02296950      15.02188464      15.02076838      15.01965760      15.01910987
        15.15172679      15.15511831      15.15931743      15.16319681      15.16684856      15.17045526      15.17221767      15.17114469      15.16711895      15.16210244      15.15656209      15.14893969      15.13862752      15.12749282      15.11675273      15.10619112      15.09636132      15.08738875      15.07905188      15.07341671
        15.07072468      15.07002682      15.07098651      15.07274649      15.07521781      15.07785281      15.08019419      15.08198043      15.08209027      15.07984090      15.07613158      15.07175953      15.06712806      15.06252259      15.05869991      15.05588540      15.05388817      15.05221080      15.05119772      15.05131228
        15.05282766      15.05500409      15.05775509      15.06032850      15.06263439      15.06558092      15.06872594      15.07161497      15.07420341      15.07634770      15.07757905      15.07770605      15.07660577      15.07502169      15.07303941      15.07125094      15.07039553      15.07048618      15.07159404      15.07316150
        15.07408547      15.07390642      15.07347114      15.07326990      15.07309254      15.07267142      15.07257713      15.07310219      15.07490482      15.07847085      15.08425736      15.09168730      15.10038095      15.11015640      15.11916872      15.12750601      15.13423560      15.13950523      15.14273490      15.14403497
        15.14282978      15.13828304      15.13069559      15.12189005      15.11270833      15.10341998      15.09464810      15.08715814      15.08074947      15.07479346      15.06906049      15.06332945      15.05808634      15.05374283      15.05062530      15.04788529      15.04530844      15.04293304      15.04102753      15.03982431
        15.21351189      15.21598937      15.21973985      15.22459659      15.22865387      15.23075195      15.23154144      15.23087411      15.22825801      15.22351849      15.21630166      15.20528200      15.19075920      15.17426954      15.15740522      15.14043540      15.12468705      15.11020122      15.09738551      15.08941067
        15.08664637      15.08776287      15.09183796      15.09731168      15.10323832      15.10896433      15.11403152      15.11701912      15.11675340      15.11396452      15.10997040      15.10530808      15.10026021      15.09440987      15.08909157      15.08488489      15.08206833      15.08022775      15.07910908      15.07908879
        15.08071793      15.08286520      15.08528196      15.08754819      15.08980426      15.09245890      15.09537095      15.09833562      15.10094640      15.10328075      15.10504446      15.10562984      15.10524989      15.10416504      15.10280198      15.10173847      15.10160979      15.10237434      15.10398995      15.10563330
        15.10669711      15.10704648      15.10700891      15.10700963      15.10700653      15.10710991      15.10814121      15.11033685      15.11402062      15.12002471      15.12823751      15.13836419      15.14927192      15.16016064      15.17040860      15.17949116      15.18666291      15.19223115      15.19548934      15.19608308
        15.19360874      15.18794592      15.17940574      15.16890933      15.15809624      15.14755952      15.13757692      15.12804224      15.11915039      15.11093191      15.10329341      15.09604232      15.08908610      15.08300912      15.07841936      15.07401040      15.06970715      15.06612187      15.06348952      15.06186988
        15.26251245      15.26469001      15.26808586      15.27263702      15.27591274      15.27721778      15.27778008      15.27722664      15.27515504      15.27040879      15.26181832      15.24877708      15.23157373      15.21034241      15.18682055      15.16233841      15.13855712      15.11639036      15.09818800      15.08797469
        15.08620848      15.09100741      15.10015092      15.11140406      15.12283624      15.13333729      15.14210090      15.14702757      15.14816013      15.14695085      15.14397465      15.13979219      15.13439081      15.12784374      15.12161622      15.11637415      15.11256272      15.11008836      15.10829846      15.10774710
        15.10835268      15.10948379      15.11093437      15.11250519      15.11456931      15.11682073      15.11893904      15.12108205      15.12342076      15.12582454      15.12779670      15.12909802      15.12979638      15.13000233      15.12998966      15.13019668      15.13094498      15.13198170      15.13331271      15.13478223
        15.13601260      15.13729745      15.13846097      15.13964125      15.14087184      15.14204993      15.14404410      15.14732247      15.15276979      15.16064861      15.17004319      15.18081423      15.19221824      15.20438583      15.21558862      15.22457519      15.23137133      15.23584323      15.23808074      15.23779394
        15.23473266      15.22949410      15.22194047      15.21253454      15.20245784      15.19172939      15.18102350      15.17041899      15.15971325      15.14922153      15.13972160      15.13075334      15.12214575      15.11439037      15.10755289      15.10100354      15.09517187      15.09053512      15.08716149      15.08548536
        15.30083761      15.30308601      15.30685382      15.31054724      15.31261261      15.31344571      15.31359409      15.31262393      15.30992052      15.30445457      15.29499175      15.28077206      15.26100898      15.23529665      15.20414563      15.16980187      15.13582175      15.10437143      15.07969482      15.06710629
        15.06764701      15.07836374      15.09484498      15.11394199      15.13300322      15.15017163      15.16376057      15.17218608      15.17651084      15.17800058      15.17688681      15.17341982      15.16775685      15.16129666      15.15501171      15.14918465      15.14456520      15.14115901      15.13832520      15.13645707
        15.13543440      15.13506145      15.13530615      15.13615780      15.13758691      15.13912806      15.14037898      15.14169458      15.14365278      15.14600895      15.14808035      15.15003433      15.15171688      15.15335760      15.15468957      15.15602493      15.15728320      15.15826773      15.15929552      15.16093936
        15.16298808      15.16561611      15.16840291      15.17100861      15.17343174      15.17597040      15.17901750      15.18343545      15.18986760      15.19820219      15.20816787      15.21933877      15.23123694      15.24355917      15.25407165      15.26153780      15.26681130      15.27021274      15.27168329      15.27116584
        15.26874939      15.26488399      15.25924758      15.25263334      15.24495612      15.23531876      15.22446953      15.21330900      15.20173556      15.18979516      15.17838221      15.16781541      15.15724389      15.14761139      15.13833772      15.12995903      15.12305096      15.11758302      15.11358375      15.11145500
        15.33266890      15.33468736      15.33772934      15.34008829      15.34121963      15.34142039      15.34070239      15.33874437      15.33503579      15.32867557      15.31852744      15.30309366      15.28063031      15.24974430      15.20976108      15.16397635      15.11817956      15.07608496      15.04382787      15.02911682
        15.03281268      15.05115583      15.07755276      15.10659019      15.13467293      15.15947468      15.17919680      15.19254145      15.20056245      15.20481102      15.20578169      15.20413219      15.20012480      15.19479153      15.18881908      15.18259640      15.17711797      15.17299081      15.16905808      15.16541884
        15.16249058      15.16026429      15.15900022      15.15855780      15.15891795      15.15976364      15.16066839      15.16169842      15.16306263      15.16488902      15.16681279      15.16913613      15.17163219      15.17434491      15.17689125      15.17909069      15.18065913      15.18188829      15.18352035      15.18583945
        15.18903408      15.19303985      15.19694760      15.20052187      15.20414048      15.20788530      15.21178115      15.21731776      15.22439457      15.23330906      15.24399659      15.25558574      15.26699663      15.27735488      15.28560539      15.29101696      15.29461887      15.29683507      15.29784264      15.29760076
        15.29646712      15.29462392      15.29181367      15.28837748      15.28354879      15.27620921      15.26657146      15.25574675      15.24398634      15.23112009      15.21791435      15.20587911      15.19404882      15.18247656      15.17126825      15.16191930      15.15429472      15.14791455      15.14331210      15.14080017
        15.36024154      15.36155368      15.36289443      15.36386433      15.36427164      15.36399118      15.36235538      15.35934388      15.35445664      15.34705977      15.33571461      15.31809948      15.29190531      15.25499585      15.20583478      15.14859270      15.09094391      15.03700023      14.99715877      14.98142420
        14.98825551      15.01400065      15.05134772      15.09208087      15.13047855      15.16310525      15.18892885      15.20717628      15.21898276      15.22642569      15.23024793      15.23142366      15.23031996      15.22703905      15.22245642      15.21683948      15.21084396      15.20512573      15.19953849      15.19442208
        15.18986110      15.18577195      15.18272431      15.18062499      15.17948146      15.17929185      15.17982889      15.18083148      15.18195063      15.18322393      15.18488223      15.18739184      15.19023143      15.19334892      15.19650050      15.19927839      15.20148467      15.20354437      15.20588531      15.20893228
        15.21302779      15.21784766      15.22257083      15.22736801      15.23231713      15.23684233      15.24192106      15.24845580      15.25626071      15.26565344      15.27627819      15.28690576      15.29623384      15.30437377      15.31046695      15.31458397      15.31733908      15.31912000      15.31993430      15.32044063
        15.32104403      15.32152991      15.32185181      15.32109297      15.31859017      15.31378325      15.30634007      15.29673270      15.28483390      15.27133758      15.25720510      15.24399646      15.23163351      15.21920658      15.20739019      15.19727264      15.18889988      15.18223744      15.17750080      15.17503184
        15.38495952      15.38553860      15.38590206      15.38603670      15.38567791      15.38428164      15.38143601      15.37701538      15.37057969      15.36169405      15.34878007      15.32852924      15.29793267      15.25439032      15.19744801      15.13091290      15.06161172      14.99605401      14.94990639      14.93281129
        14.94229292      14.97467904      15.02224354      15.07490254      15.12335193      15.16325466      15.19449327      15.21685904      15.23204479      15.24263843      15.24975906      15.25392267      15.25579582      15.25538558      15.25325336      15.24898604      15.24290552      15.23563764      15.22841057      15.22233693
        15.21686095      15.21156262      15.20698878      15.20338161      15.20086593      15.19965124      15.19945844      15.19996903      15.20063454      15.20142965      15.20281108      15.20501605      15.20748453      15.21039609      15.21365735      15.21687794      15.21995067      15.22286715      15.22602677      15.23003584
        15.23477436      15.24001940      15.24538814      15.25105511      15.25670494      15.26219577      15.26843845      15.27541069      15.28336468      15.29252886      15.30214505      15.31118219      15.31892294      15.32556589      15.33038579      15.33390854      15.33667326      15.33868951      15.34032051      15.34252112
        15.34513010      15.34793824      15.35034857      15.35108326      15.35005544      15.34717392      15.34183503      15.33362521      15.32210640      15.30854392      15.29463385      15.28129031      15.26893469      15.25717520      15.24601424      15.23584627      15.22739960      15.22118635      15.21680735      15.21447907
        15.40849923      15.40846342      15.40812745      15.40752759      15.40606676      15.40332218      15.39918071      15.39304190      15.38471406      15.37389520      15.35906671      15.33616080      15.30168125      15.25304479      15.18957291      15.11533145      15.03657807      14.96100818      14.90809633      14.88885010
        14.90010539      14.93866044      14.99649055      15.05963397      15.11656854      15.16248439      15.19734482      15.22234129      15.24000490      15.25307691      15.26286627      15.27001576      15.27478545      15.27728142      15.27772993      15.27549863      15.27066146      15.26403650      15.25658402      15.24993621
        15.24374960      15.23770309      15.23216506      15.22739191      15.22417420      15.22240398      15.22132154      15.22085596      15.22057718      15.22088049      15.22174073      15.22316792      15.22494088      15.22739109      15.23063166      15.23403807      15.23733657      15.24081449      15.24506569      15.25017019
        15.25506951      15.26034732      15.26576162      15.27160262      15.27772095      15.28398626      15.29050785      15.29762887      15.30564537      15.31437919      15.32303977      15.33104186      15.33788373      15.34340177      15.34768383      15.35104995      15.35407824      15.35681713      15.36009547      15.36413140
        15.36870103      15.37322698      15.37681394      15.37876446      15.37901574      15.37733935      15.37315010      15.36580510      15.35531591      15.34264742      15.32966932      15.31705148      15.30575273      15.29586272      15.28636801      15.27807699      15.27125912      15.26591326      15.26191425      15.26004187
        15.43299309      15.43191968      15.43031914      15.42830742      15.42530425      15.42124036      15.41563381      15.40788571      15.39761334      15.38467069      15.36775585      15.34261749      15.30524143      15.25290500      15.18535421      15.10692501      15.02219809      14.93953658      14.88297377      14.87015775
        14.86858261      14.86616572      14.86441014      14.87496195      14.91786815      14.98278369      15.05178364      15.11267884      15.16105070      15.19771469      15.22442811      15.24387873      15.25884167      15.27058708      15.27993633      15.28706144      15.29229757      15.29569384      15.29642207      15.29463787
        15.29099731      15.28557552      15.27907452      15.27226079      15.26493396      15.25847690      15.25332090      15.24980182      15.24767503      15.24584506      15.24419450      15.24316563      15.24307509      15.24363443      15.24440778      15.24530986      15.24693054      15.24921573      15.25180568      15.25460215
        15.25816896      15.26302878      15.26368849      15.26588495      15.27034839      15.27266353      15.27296954      15.27798319      15.28339455      15.28946583      15.29592875      15.30220733      15.30876869      15.31638637      15.32473846      15.33336666      15.34163019      15.34890680      15.35484799      15.35967272
        15.36372050      15.36719431      15.37063791      15.37460356      15.37950225      15.38519947      15.39131130      15.39697955      15.40174754      15.40487938      15.40606569      15.40497195      15.40114396      15.39453588      15.38574042      15.37509250      15.36347692      15.35259454      15.34329066      15.33556093
        15.32855321      15.32321275      15.31870788      15.31479187      15.31159840      15.30980346      15.45891073      15.45646141      15.45319757      15.44915965      15.44406369      15.43814947      15.43087282      15.42153153      15.40941132      15.39445948      15.37544573      15.34821046      15.30935772      15.25622766
        15.18849896      15.10945340      15.02307158      14.93957874      14.89234530      14.87741819      14.89909642      14.88532667      14.86892735      14.86659338      14.87121082      14.86874999      14.86828682      14.87006454      14.86949285      14.86923825      14.87020214      14.87003536      14.86580807      14.86671189
        14.86769468      14.86787159      14.86909988      14.86890858      14.87001146      14.86983547      14.86926954      14.86909593      14.87567827      14.87250664      14.87153617      14.87123635      14.87265898      14.87251652      14.87492464      14.87471142      14.88112033      14.87974668      14.87123395      14.87130718
        14.87245214      14.87231169      14.87196655      14.87434412      14.87436273      14.87444574      14.87945548      14.88021467      14.87292821      14.88514363      14.88264608      14.89355456      14.92451218      14.98927447      15.05520539      15.11357369      15.16062777      15.19676550      15.22401485      15.24475587
        15.26120549      15.27426710      15.28507430      15.29431529      15.30221345      15.30873315      15.31308320      15.31501592      15.31507349      15.31277856      15.30797343      15.30150791      15.29401279      15.28702342      15.28190853      15.27819711      15.27528278      15.27282593      15.27053122      15.26929418
        15.26895802      15.26892352      15.26887638      15.26854712      15.26888280      15.26957485      15.27069281      15.27254401      15.27518473      15.27495039      15.27616512      15.28136020      15.28339828      15.27641870      15.27717065      15.27952572      15.27969431      15.28005789      15.28113633      15.28128417
        15.28147732      15.28200978      15.28232776      15.27847778      15.27992042      15.28071791      15.28142160      15.28183582      15.28214318      15.28266827      15.28293586      15.28295701      15.28306837      15.28347128      15.28322837      15.28309950      15.28329915      15.28394197      15.28421939      15.28490989
        15.28548021      15.28689915      15.28807402      15.28362479      15.28403077      15.28457905      15.28482345      15.28505527      15.28615093      15.28665250      15.28710767      15.28935922      15.29025273      15.28370235      15.28630199      15.29068035      15.29229641      15.29342648      15.29928545      15.30555564
        15.31194449      15.31829988      15.32534802      15.33351264      15.34204539      15.35044764      15.35827436      15.36488172      15.37021861      15.37496320      15.37900838      15.38281059      15.38711355      15.39228905      15.39843653      15.40554985      15.41279334      15.41958042      15.42517978      15.42898024
        15.43082715      15.43011685      15.42687844      15.42161077      15.41494911      15.40702210      15.39808682      15.38950662      15.38201543      15.37638748      15.37203279      15.36857444      15.36544962      15.36274922      15.36048816      15.35908635      15.48380010      15.48050192      15.47572195      15.46968940
        15.46243598      15.45427294      15.44481628      15.43354234      15.41965575      15.40305347      15.38230501      15.35344658      15.31424666      15.26282573      15.19801072      15.12332300      15.04344488      14.96633721      14.91446787      14.89319010      14.89305954      14.91083441      14.91064825      14.91304291
        14.95502973      15.01153713      15.06832772      15.11931641      15.16175572      15.19548787      15.22238158      15.24371782      15.26083154      15.27462389      15.28664641      15.29787283      15.30819288      15.31760851      15.32546540      15.33109208      15.33450732      15.33506986      15.33301246      15.32882649
        15.32292358      15.31685919      15.31184399      15.30780494      15.30433903      15.30130633      15.29917617      15.29772294      15.29647891      15.29500658      15.29361689      15.29183006      15.29076777      15.29007992      15.28999114      15.29062051      15.29196368      15.29432901      15.29389536      15.29609702
        15.30028044      15.30196091      15.30263094      15.30804724      15.31385145      15.31996579      15.32639286      15.33317003      15.34061170      15.34895648      15.35739627      15.36543787      15.37271578      15.37899659      15.38440172      15.38937963      15.39378203      15.39823594      15.40345016      15.40958606
        15.41692575      15.42522560      15.43347928      15.44096536      15.44690647      15.45096176      15.45308274      15.45305660      15.45108290      15.44763575      15.44333090      15.43787190      15.43196404      15.42601677      15.42078676      15.41703242      15.41390141      15.41067479      15.40794844      15.40604086
        15.40480487      15.40464991      15.50423594      15.50080625      15.49520197      15.48776019      15.47877580      15.46870536      15.45702001      15.44360055      15.42791877      15.40977405      15.38780195      15.35799977      15.31903939      15.27043347      15.21150757      15.14538775      15.07590021      15.01014791
        14.96544548      14.94996985      14.96197251      14.99543242      15.04016730      15.08528451      15.12693053      15.16354241      15.19441034      15.21997728      15.24090936      15.25812583      15.27246267      15.28570388      15.29861670      15.31087960      15.32255138      15.33309910      15.34152237      15.34768144
        15.35096906      15.35196982      15.35105860      15.34763684      15.34314893      15.33853646      15.33450176      15.33092669      15.32747637      15.32493215      15.32265204      15.32004889      15.31708513      15.31433504      15.31120884      15.30885380      15.30704671      15.30609784      15.30612674      15.30710072
        15.30911426      15.31211980      15.31620353      15.32107446      15.32643956      15.33244148      15.33903755      15.34604025      15.35373321      15.36211204      15.37039856      15.37810966      15.38530144      15.39188636      15.39767755      15.40305682      15.40805909      15.41318227      15.41937962      15.42684868
        15.43583153      15.44524146      15.45379526      15.46105511      15.46674933      15.47072736      15.47309393      15.47408400      15.47360461      15.47224899      15.47038292      15.46756714      15.46422853      15.46068664      15.45743568      15.45434157      15.45094503      15.44740484      15.44492630      15.44387423
        15.44386074      15.44457553      15.51927985      15.51581234      15.50984436      15.50185400      15.49192579      15.48032441      15.46675691      15.45140811      15.43415610      15.41438308      15.39100388      15.36088319      15.32321460      15.27784736      15.22535600      15.16898316      15.11106178      15.05676312
        15.01822774      15.00283890      15.00908866      15.03329589      15.06631126      15.10059094      15.13399813      15.16505800      15.19272301      15.21640288      15.23627759      15.25345037      15.26848888      15.28281816      15.29701242      15.31057135      15.32369356      15.33601048      15.34614581      15.35431000
        15.36018850      15.36391129      15.36552149      15.36437102      15.36122790      15.35732537      15.35348141      15.34968687      15.34560442      15.34193382      15.33845373      15.33468907      15.33092931      15.32746096      15.32369439      15.32073133      15.31830098      15.31696992      15.31698278      15.31811341
        15.32031545      15.32323719      15.32688500      15.33134631      15.33656767      15.34252825      15.34922316      15.35642831      15.36415745      15.37245943      15.38066799      15.38852225      15.39619379      15.40329558      15.40949050      15.41544800      15.42114034      15.42720203      15.43484255      15.44394171
        15.45413369      15.46376221      15.47191327      15.47859858      15.48385145      15.48788471      15.49086709      15.49299130      15.49418064      15.49475437      15.49492099      15.49455714      15.49365577      15.49208539      15.48980540      15.48683672      15.48339566      15.48001841      15.47780074      15.47746195
        15.47822040      15.47902014      15.52999107      15.52644096      15.52035410      15.51193039      15.50109450      15.48812031      15.47304240      15.45635126      15.43755528      15.41608007      15.39138473      15.36093226      15.32466388      15.28304551      15.23683262      15.18934828      15.14181658      15.09659152
        15.06286483      15.04662755      15.04748906      15.06314132      15.08650355      15.11260442      15.13942240      15.16536474      15.18953670      15.21106653      15.22984370      15.24677695      15.26239690      15.27770461      15.29285882      15.30716600      15.32111747      15.33435998      15.34527074      15.35447825
        15.36178600      15.36690593      15.36986672      15.36995603      15.36757976      15.36427771      15.36056345      15.35660645      15.35233565      15.34811411      15.34396787      15.33973507      15.33582527      15.33222588      15.32857323      15.32597149      15.32399091      15.32308064      15.32340716      15.32484886
        15.32725150      15.33030728      15.33405859      15.33863403      15.34387982      15.34991464      15.35673649      15.36401286      15.37171562      15.38011563      15.38854766      15.39683057      15.40504258      15.41265790      15.41941534      15.42607695      15.43264394      15.43994709      15.44888543      15.45903255
        15.46925237      15.47833416      15.48604751      15.49243704      15.49768170      15.50192254      15.50555402      15.50875873      15.51162338      15.51412992      15.51621083      15.51781579      15.51852388      15.51826017      15.51680472      15.51471324      15.51217000      15.50983215      15.50835193      15.50848157
        15.50942786      15.51019028      15.53761221      15.53372898      15.52719521      15.51802131      15.50605119      15.49178187      15.47551619      15.45781259      15.43793504      15.41505620      15.38889334      15.35830696      15.32370685      15.28479527      15.24341010      15.20274150      15.16295773      15.12492284
        15.09530561      15.07898277      15.07593708      15.08421717      15.10032581      15.12050816      15.14224931      15.16359733      15.18396765      15.20311461      15.22088332      15.23768911      15.25389251      15.27011936      15.28585157      15.30048184      15.31449694      15.32749886      15.33797541      15.34693743