# File generated by Flopy version 3.6.0 on 10/29/2024 at 13:31:57.
BEGIN options
  PRINT_OPTION  summary
  COMPLEXITY  complex
END options

BEGIN linear
  LINEAR_ACCELERATION  bicgstab
END linear

