# File generated by Flopy version 3.6.0 on 07/18/2024 at 15:37:07.
BEGIN griddata
  strt
    INTERNAL  FACTOR  1.0
        15.00000000      15.00000000      15.00000000      15.00000000      15.00000000      15.00000000      15.00000000      15.00000000      15.00000000      15.00000000      15.00000000      15.00000000      15.00000000      15.00000000      15.00000000      15.00000000      15.00000000      15.00000000      15.00000000      15.00000000
        15.00000000      15.00000000      15.00000000      15.00000000      15.00000000      15.00000000      15.00000000      15.00000000      15.00000000      15.00000000      15.00000000      15.00000000      15.00000000      15.00000000      15.00000000      15.00000000      15.00000000      15.00000000      15.00000000      15.00000000
        15.00000000      15.00000000      15.00000000      15.00000000      15.00000000      15.00000000      15.00000000      15.00000000      15.00000000      15.00000000      15.00000000      15.00000000      15.00000000      15.00000000      15.00000000      15.00000000      15.00000000      15.00000000      15.00000000      15.00000000
        15.00000000      15.00000000      15.00000000      15.00000000      15.00000000      15.00000000      15.00000000      15.00000000      15.00000000      15.00000000      15.00000000      15.00000000      15.00000000      15.00000000      15.00000000      15.00000000      15.00000000      15.00000000      15.00000000      15.00000000
        15.00000000      15.00000000      15.00000000      15.00000000      15.00000000      15.00000000      15.00000000      15.00000000      15.00000000      15.00000000      15.00000000      15.00000000      15.00000000      15.00000000      15.00000000      15.00000000      15.00000000      15.00000000      15.00000000      15.00000000
        15.11572891      15.11737640      15.11917915      15.11906038      15.11574488      15.11109404      15.10671392      15.10355383      15.10170500      15.10075050      15.09902655      15.09467871      15.08893294      15.08258309      15.07695768      15.07132334      15.06539464      15.05918395      15.05254813      15.04628399
        15.04023146      15.03509090      15.03057015      15.02644423      15.02291817      15.02030011      15.01892801      15.01834696      15.01807966      15.01761593      15.01706268      15.01651209      15.01636454      15.01669081      15.01759439      15.01885514      15.02012286      15.02196785      15.02480185      15.02892603
        15.03403321      15.03948219      15.04423868      15.04816094      15.05169632      15.05473339      15.05812943      15.06140712      15.06425144      15.06622286      15.06763414      15.07026097      15.07600997      15.08346911      15.09182887      15.09961716      15.10551272      15.10990076      15.11312981      15.11353238
        15.11236985      15.11057042      15.10804563      15.10458520      15.10240323      15.09999043      15.09711185      15.09509003      15.09703469      15.10479444      15.11744486      15.13309580      15.15207144      15.17211872      15.19315561      15.21472049      15.23556376      15.25619430      15.26958370      15.27601760
        15.27718567      15.27643571      15.27436849      15.27302842      15.27477922      15.28238873      15.29375558      15.30822897      15.32223728      15.32586730      15.31852101      15.30516007      15.28945936      15.27114995      15.25070856      15.23257994      15.21376667      15.19758235      15.18904396      15.18758357
        15.18954338      15.19009044      15.19004551      15.18775449      15.18230585      15.17576691      15.16945250      15.16381343      15.15882067      15.15382527      15.14771099      15.14040859      15.13273944      15.12546251      15.11853637      15.11125717      15.10354356      15.09541276      15.08672008      15.07793363
        15.06957677      15.06150059      15.05438047      15.04828485      15.04327016      15.03969288      15.03737220      15.03586685      15.03472204      15.03354656      15.03272386      15.03243001      15.03267446      15.03357894      15.03508891      15.03712220      15.03966832      15.04372096      15.04966389      15.05733710
        15.06598604      15.07481170      15.08268354      15.08955198      15.09564423      15.10102425      15.10649735      15.11177233      15.11707951      15.12232333      15.12805801      15.13577369      15.14537168      15.15529352      15.16496836      15.17255547      15.17815202      15.18189091      15.18353458      15.18179083
        15.17892308      15.17621655      15.17399942      15.17200041      15.17037893      15.16863039      15.16806819      15.17105951      15.18054954      15.19765396      15.21950443      15.24642126      15.27858202      15.31422469      15.35121646      15.38724145      15.42173368      15.45028679      15.46925754      15.48144134
        15.48981765      15.49796061      15.50607245      15.51584056      15.52953887      15.54605705      15.56329052      15.58240307      15.59293120      15.58764169      15.57157665      15.54601398      15.51733622      15.48936929      15.46006142      15.43377912      15.41291168      15.39992805      15.39527610      15.39644662
        15.23510451      15.23337271      15.22994037      15.22483037      15.21834715      15.21101352      15.20341135      15.19612881      15.18896969      15.18160009      15.17372307      15.16579902      15.15813748      15.15086869      15.14366623      15.13609683      15.12801849      15.11937703      15.11035331      15.10103106
        15.09195968      15.08299952      15.07473261      15.06771402      15.06191475      15.05762363      15.05438712      15.05170736      15.04940703      15.04783398      15.04718528      15.04758163      15.04882706      15.05039234      15.05238961      15.05532508      15.05983415      15.06641481      15.07500739      15.08477896
        15.09521642      15.10572110      15.11545086      15.12422878      15.13243314      15.14074183      15.14931790      15.15774001      15.16554699      15.17359798      15.18220702      15.19154008      15.20100696      15.21004546      15.21801553      15.22449992      15.22920798      15.23156493      15.23139506      15.23005482
        15.22857571      15.22695069      15.22556095      15.22445589      15.22368345      15.22474231      15.22995077      15.24103821      15.25961278      15.28492776      15.31652804      15.35479561      15.39605110      15.43830339      15.48023087      15.52075975      15.55919053      15.59079765      15.61676328      15.64063627
        15.66465544      15.69108441      15.71640145      15.73827064      15.75832426      15.77571368      15.78808665      15.79627714      15.79658649      15.78434091      15.76217440      15.73238165      15.69903389      15.66731240      15.63776286      15.61438185      15.59816606      15.59066954      15.58814880      15.58844718
        15.25789626      15.25528104      15.25049726      15.24430850      15.23721734      15.22943275      15.22120488      15.21301775      15.20503374      15.19725534      15.18959910      15.18210974      15.17476217      15.16740916      15.16017859      15.15264953      15.14482027      15.13636469      15.12755947      15.11871146
        15.10994264      15.10132433      15.09297389      15.08548734      15.07924042      15.07407079      15.06986019      15.06632693      15.06358563      15.06215340      15.06211079      15.06329149      15.06519166      15.06752825      15.07055786      15.07493306      15.08167159      15.09051414      15.10034800      15.11063162
        15.12142000      15.13215154      15.14251248      15.15303539      15.16422767      15.17555994      15.18655497      15.19660053      15.20542688      15.21377414      15.22225579      15.23099160      15.23984535      15.24831493      15.25507644      15.26036441      15.26402958      15.26614497      15.26738665      15.26842581
        15.26905517      15.26933035      15.27022776      15.27270358      15.27683687      15.28396924      15.29663203      15.31565046      15.34238153      15.37551621      15.41435922      15.45670010      15.49840931      15.53922575      15.57882087      15.61904492      15.65860391      15.69595793      15.73253437      15.76965709
        15.80677431      15.84122114      15.87169343      15.89811125      15.91844761      15.93261751      15.93830610      15.93671324      15.92898451      15.91489332      15.89465314      15.87009785      15.84170106      15.81274525      15.78835239      15.76934234      15.75661482      15.74776206      15.74250415      15.74030253
        15.26697850      15.26427973      15.25938917      15.25299936      15.24588311      15.23835860      15.23048136      15.22256575      15.21479460      15.20732904      15.20003937      15.19282977      15.18576621      15.17862055      15.17149595      15.16424637      15.15679055      15.14908830      15.14095804      15.13289716
        15.12498814      15.11704320      15.10922095      15.10178093      15.09516156      15.08934792      15.08429750      15.08038479      15.07797724      15.07712061      15.07758996      15.07922132      15.08150605      15.08465693      15.08915162      15.09557110      15.10429680      15.11415065      15.12391938      15.13410181
        15.14489359      15.15611337      15.16772404      15.18011361      15.19309006      15.20535360      15.21625128      15.22565056      15.23379196      15.24153950      15.24935319      15.25754836      15.26563883      15.27290129      15.27862237      15.28324711      15.28744740      15.29151712      15.29544023      15.29880947
        15.30174493      15.30537377      15.31116332      15.31930086      15.33010333      15.34556254      15.36653537      15.39331743      15.42561863      15.46292277      15.50237235      15.54246926      15.58160791      15.61966314      15.65810479      15.69976761      15.74412836      15.78860604      15.83222486      15.87390196
        15.91173687      15.94496273      15.97499834      16.00021039      16.01756405      16.02628955      16.02734499      16.02246950      16.01300098      16.00161953      15.98735462      15.96958576      15.94912483      15.92657763      15.90552876      15.88848169      15.87614175      15.86616494      15.85952564      15.85646968
        15.26891175      15.26600236      15.26112122      15.25520516      15.24881534      15.24207289      15.23514695      15.22821946      15.22113356      15.21407418      15.20723723      15.20043558      15.19366779      15.18686703      15.18007268      15.17328244      15.16643747      15.15952503      15.15229679      15.14497187
        15.13784116      15.13058753      15.12339794      15.11644880      15.10984670      15.10381863      15.09853377      15.09470644      15.09275577      15.09220505      15.09285497      15.09436839      15.09687488      15.10104528      15.10754130      15.11621210      15.12616547      15.13610841      15.14587492      15.15645841
        15.16805080      15.18022669      15.19258325      15.20541430      15.21781650      15.22875843      15.23815253      15.24630832      15.25340979      15.26032251      15.26749829      15.27499543      15.28202794      15.28823289      15.29382179      15.29927707      15.30490190      15.31085702      15.31645066      15.32179279
        15.32784395      15.33595876      15.34701716      15.36076060      15.37837203      15.40145465      15.42948403      15.46192166      15.49809287      15.53732644      15.57701376      15.61659500      15.65491487      15.69367990      15.73544604      15.78153341      15.82982076      15.87695163      15.92054123      15.95921948
        15.99418762      16.02613818      16.05393879      16.07421923      16.08571088      16.09083202      16.09040612      16.08558644      16.07766562      16.06709255      16.05398587      16.03855396      16.02156003      16.00367995      15.98659273      15.97199224      15.96033255      15.95120222      15.94406791      15.94069663
        15.26667117      15.26370124      15.25926765      15.25420189      15.24887363      15.24333646      15.23763476      15.23175259      15.22554848      15.21911548      15.21270007      15.20631506      15.19988853      15.19347993      15.18706638      15.18062264      15.17430362      15.16798227      15.16150098      15.15480324
        15.14829862      15.14196054      15.13566516      15.12945493      15.12344094      15.11781393      15.11303204      15.10963668      15.10789134      15.10750523      15.10833264      15.11004368      15.11324469      15.11880087      15.12694623      15.13684950      15.14735220      15.15719792      15.16721778      15.17839183
        15.19043707      15.20257709      15.21441342      15.22623726      15.23678786      15.24567272      15.25335631      15.26012418      15.26628345      15.27261315      15.27941569      15.28628682      15.29293260      15.29928580      15.30546559      15.31192664      15.31873699      15.32576198      15.33289561      15.34098355
        15.35080521      15.36300826      15.37791833      15.39620854      15.41861681      15.44618243      15.47867892      15.51469612      15.55384123      15.59516345      15.63749133      15.67995714      15.72205458      15.76577287      15.81179872      15.86069787      15.90923177      15.95385417      15.99326551      16.02910644
        16.06265957      16.09243127      16.11623593      16.13129091      16.13870236      16.14195250      16.14144118      16.13664073      16.12785153      16.11584875      16.10214816      16.08722533      16.07196746      16.05675501      16.04250047      16.02960307      16.01839713      16.00958892      16.00255486      15.99866296
        15.26299430      15.26042053      15.25671674      15.25256496      15.24821509      15.24381583      15.23921266      15.23419239      15.22874766      15.22301208      15.21709706      15.21112874      15.20503865      15.19886743      15.19281773      15.18673432      15.18078741      15.17497110      15.16909690      15.16302493
        15.15703025      15.15139312      15.14593213      15.14063338      15.13554183      15.13093391      15.12734238      15.12477334      15.12338343      15.12339016      15.12468230      15.12751164      15.13248773      15.13974645      15.14895226      15.15913747      15.16888854      15.17797556      15.18772262      15.19843490
        15.20955512      15.22044274      15.23101296      15.24083854      15.24924109      15.25636580      15.26274954      15.26867605      15.27451825      15.28071167      15.28738461      15.29434487      15.30135595      15.30819226      15.31519447      15.32272522      15.33078381      15.33922553      15.34845935      15.35893898
        15.37128969      15.38595988      15.40300861      15.42367807      15.44891403      15.47969529      15.51489996      15.55287300      15.59415392      15.63917911      15.68672804      15.73446329      15.78150399      15.82805460      15.87607302      15.92544257      15.97211722      16.01330475      16.05110917      16.08667372
        16.11882408      16.14587886      16.16593560      16.17792101      16.18364182      16.18511120      16.18257926      16.17650890      16.16617616      16.15332583      16.13963820      16.12533042      16.11112199      16.09722686      16.08409775      16.07177416      16.06036057      16.05104397      16.04405478      16.04008758
        15.25964634      15.25765986      15.25474021      15.25145166      15.24801503      15.24448649      15.24061995      15.23624625      15.23137829      15.22616819      15.22076932      15.21518981      15.20951148      15.20375616      15.19802601      15.19233079      15.18672628      15.18132599      15.17595718      15.17049096
        15.16507186      15.15995828      15.15526798      15.15098627      15.14710977      15.14388558      15.14165286      15.14019020      15.13960041      15.14036114      15.14292411      15.14767584      15.15456928      15.16316094      15.17270693      15.18175467      15.18966123      15.19741778      15.20583128      15.21481344
        15.22411547      15.23340558      15.24232641      15.25028561      15.25722972      15.26342411      15.26927210      15.27501504      15.28086698      15.28730205      15.29430439      15.30160074      15.30899648      15.31651554      15.32456424      15.33326500      15.34241207      15.35216459      15.36270341      15.37449631
        15.38837183      15.40423566      15.42337330      15.44718758      15.47617163      15.50982163      15.54728116      15.58808342      15.63320088      15.68285346      15.73340555      15.78206816      15.82933192      15.87637260      15.92501625      15.97341222      16.01823949      16.05879713      16.09686616      16.13258948
        16.16520057      16.19055090      16.20751690      16.21709230      16.22122166      16.22095372      16.21620175      16.20818963      16.19670061      16.18315487      16.16916673      16.15510065      16.14126221      16.12734954      16.11432305      16.10254267      16.09203684      16.08306931      16.07672670      16.07335457
        15.25730903      15.25581050      15.25358262      15.25104519      15.24836081      15.24543986      15.24206591      15.23824925      15.23395794      15.22919087      15.22411402      15.21892240      15.21368644      15.20836703      15.20301388      15.19771556      15.19251564      15.18744443      15.18246670      15.17755074
        15.17275523      15.16832553      15.16452108      15.16136572      15.15885380      15.15712663      15.15612670      15.15597032      15.15669912      15.15890545      15.16317358      15.16932983      15.17689427      15.18536129      15.19356288      15.20042206      15.20645055      15.21272438      15.21952407      15.22680727
        15.23462362      15.24262605      15.25025820      15.25726230      15.26366258      15.26956923      15.27534365      15.28123221      15.28737211      15.29407267      15.30130835      15.30894166      15.31686262      15.32517742      15.33410040      15.34356209      15.35346532      15.36405022      15.37559041      15.38873865
        15.40413684      15.42253118      15.44572283      15.47391619      15.50634574      15.54312672      15.58374945      15.62813611      15.67645904      15.72732766      15.77639266      15.82302082      15.86873893      15.91480151      15.96247028      16.00966950      16.05374668      16.09424420      16.13216407      16.16845844
        16.20010352      16.22317629      16.23784708      16.24565633      16.24794627      16.24580504      16.23941895      16.23030392      16.21857947      16.20505525      16.19103577      16.17688659      16.16331991      16.15007251      16.13754892      16.12624795      16.11652607      16.10856621      16.10295101      16.09999897
        15.25613071      15.25495281      15.25323158      15.25125923      15.24903782      15.24652857      15.24359904      15.24023837      15.23643681      15.23213325      15.22742916      15.22255295      15.21767323      15.21279769      15.20783223      15.20284461      15.19800516      15.19331097      15.18876566      15.18439492
        15.18036077      15.17682130      15.17402186      15.17200243      15.17068627      15.17024968      15.17051307      15.17176896      15.17407494      15.17769393      15.18279324      15.18900323      15.19597285      15.20294258      15.20887428      15.21382068      15.21862374      15.22391736      15.22972591      15.23608295
        15.24303192      15.25027501      15.25729685      15.26385545      15.27003919      15.27586909      15.28165696      15.28757237      15.29377281      15.30064060      15.30816868      15.31620364      15.32471061      15.33375954      15.34346701      15.35386159      15.36472466      15.37656976      15.38979545      15.40517967
        15.42372807      15.44631171      15.47386743      15.50555151      15.54074473      15.57986927      15.62254615      15.66851364      15.71752189      15.76716031      15.81388957      15.85856427      15.90267282      15.94785128      15.99435977      16.04015675      16.08253111      16.12120048      16.15841403      16.19368061
        16.22266870      16.24306576      16.25603900      16.26244365      16.26294894      16.25850548      16.25049119      16.24068289      16.22898577      16.21598419      16.20271185      16.18955306      16.17686969      16.16468407      16.15344505      16.14318662      16.13437050      16.12738775      16.12236824      16.11979769
        15.25582973      15.25490476      15.25352715      15.25188509      15.24997050      15.24772353      15.24510181      15.24212840      15.23875983      15.23493158      15.23071890      15.22630780      15.22181371      15.21728584      15.21275309      15.20820773      15.20378731      15.19956215      15.19562155      15.19202215
        15.18879121      15.18609571      15.18414306      15.18313025      15.18298924      15.18354906      15.18486766      15.18705709      15.19027918      15.19447690      15.19949074      15.20515768      15.21102993      15.21624503      15.22056123      15.22456466      15.22888278      15.23359531      15.23875549      15.24447678
        15.25092571      15.25772970      15.26435325      15.27059502      15.27643979      15.28190437      15.28742868      15.29325603      15.29956605      15.30672296      15.31462795      15.32317773      15.33244544      15.34244076      15.35333487      15.36483938      15.37719453      15.39132995      15.40755238      15.42639248
        15.44889891      15.47542448      15.50598686      15.53926007      15.57543243      15.61505518      15.65845876      15.70508278      15.75284250      15.79991293      15.84474079      15.88819317      15.93150086      15.97538638      16.01903515      16.06082974      16.09984966      16.13699689      16.17297137      16.20552203
        16.23115486      16.24901405      16.26027668      16.26477031      16.26291435      16.25635278      16.24710150      16.23681531      16.22513681      16.21301154      16.20129177      16.19005071      16.17943841      16.16918795      16.16001537      16.15178104      16.14462011      16.13896938      16.13485161      16.13277442
        15.25615308      15.25537697      15.25419701      15.25274251      15.25104354      15.24907065      15.24671272      15.24400424      15.24099151      15.23761937      15.23390967      15.23002821      15.22607726      15.22204565      15.21807821      15.21426963      15.21069825      15.20732136      15.20423666      15.20145477
        15.19893238      15.19687170      15.19556716      15.19517905      15.19569131      15.19677191      15.19851930      15.20108015      15.20478081      15.20918975      15.21405550      15.21899139      15.22353985      15.22738369      15.23081177      15.23435455      15.23836818      15.24275363      15.24754336      15.25298582
        15.25916296      15.26549044      15.27143624      15.27691062      15.28205606      15.28713899      15.29256587      15.29846973      15.30513414      15.31282969      15.32125667      15.33045525      15.34064811      15.35191315      15.36408769      15.37725531      15.39244085      15.40999520      15.42969670      15.45205809
        15.47801901      15.50697672      15.53849098      15.57219133      15.60858408      15.64801633      15.69084845      15.73551268      15.78048889      15.82563629      15.86899242      15.91115780      15.95280320      15.99363724      16.03292694      16.07051899      16.10621453      16.14065536      16.17385364      16.20298135
        16.22548001      16.24077922      16.24973712      16.25223568      16.24895157      16.24176445      16.23224967      16.22204883      16.21117929      16.20061302      16.19061834      16.18116227      16.17265364      16.16490871      16.15808696      16.15201929      16.14680072      16.14269952      16.13974750      16.13817231
        15.25693859      15.25624145      15.25518903      15.25389364      15.25237110      15.25061995      15.24852204      15.24605523      15.24336169      15.24040062      15.23717277      15.23384057      15.23055982      15.22728206      15.22414258      15.22124617      15.21869085      15.21638373      15.21422899      15.21219036
        15.21037116      15.20889563      15.20795064      15.20758664      15.20793752      15.20905647      15.21101516      15.21412080      15.21818737      15.22261863      15.22704236      15.23101701      15.23437115      15.23737266      15.24036066      15.24366904      15.24742113      15.25160050      15.25629715      15.26152049
        15.26709498      15.27245591      15.27742863      15.28221365      15.28697803      15.29192675      15.29740859      15.30374330      15.31112376      15.31948956      15.32854451      15.33866961      15.35029976      15.36330676      15.37778855      15.39412284      15.41264976      15.43296037      15.45550113      15.48080250
        15.50873604      15.53826297      15.56979542      15.60341219      15.63887983      15.67693745      15.71765304      15.75983498      15.80296347      15.84600595      15.88719187      15.92695657      15.96547121      16.00266517      16.03808643      16.07191791      16.10427789      16.13531475      16.16487471      16.19004968
        16.20914075      16.22205732      16.22913097      16.23072061      16.22759063      16.22107493      16.21257285      16.20326878      16.19350262      16.18420120      16.17563885      16.16778836      16.16108994      16.15551121      16.15083450      16.14679049      16.14337348      16.14068339      16.13865443      16.13755248
        15.25812620      15.25750935      15.25655754      15.25539260      15.25402404      15.25247058      15.25069747      15.24858686      15.24619891      15.24357637      15.24081677      15.23801334      15.23533789      15.23288392      15.23058233      15.22847545      15.22664095      15.22506243      15.22361916      15.22231973
        15.22130539      15.22047389      15.21970831      15.21924561      15.21938123      15.22054053      15.22291566      15.22645703      15.23050747      15.23458196      15.23834433      15.24157019      15.24428971      15.24687544      15.24960735      15.25255985      15.25589160      15.25979162      15.26403931      15.26858397
        15.27323802      15.27780101      15.28226361      15.28674915      15.29142731      15.29656395      15.30258194      15.30973533      15.31799125      15.32708030      15.33718644      15.34904614      15.36298074      15.37856770      15.39573758      15.41465644      15.43526874      15.45831934      15.48388160      15.51090678
        15.53928264      15.56880779      15.59984377      15.63207830      15.66628849      15.70277496      15.74104980      15.78083861      15.82172865      15.86235882      15.90061026      15.93626614      15.97037298      16.00369905      16.03616817      16.06733623      16.09701025      16.12464919      16.15001364      16.17176254
        16.18783081      16.19816200      16.20369794      16.20553817      16.20325904      16.19812740      16.19105299      16.18289887      16.17430256      16.16622606      16.15928893      16.15335950      16.14870843      16.14510648      16.14210478      16.13941312      16.13709574      16.13509097      16.13350483      16.13260211
        15.25952219      15.25900226      15.25817348      15.25716665      15.25601599      15.25472204      15.25322282      15.25150827      15.24956637      15.24735408      15.24492511      15.24251701      15.24030347      15.23835454      15.23659845      15.23504765      15.23372519      15.23265776      15.23178647      15.23109438
        15.23064815      15.23029249      15.22996105      15.22989371      15.23042312      15.23200441      15.23481096      15.23833732      15.24191686      15.24522140      15.24820666      15.25086736      15.25333042      15.25570724      15.25809962      15.26063912      15.26361889      15.26687421      15.27026678      15.27406785
        15.27813845      15.28228574      15.28656675      15.29106092      15.29594617      15.30153638      15.30835203      15.31655770      15.32581941      15.33609229      15.34812681      15.36243473      15.37897738      15.39703100      15.41660213      15.43803360      15.46175764      15.48786692      15.51449957      15.54110473
        15.56898817      15.59761237      15.62724881      15.65832283      15.69130967      15.72573013      15.76204014      15.79951993      15.83746221      15.87461377      15.90835480      15.93903476      15.96878227      15.99844958      16.02806604      16.05706474      16.08423806      16.10876375      16.13029309      16.14853320
        16.16207731      16.17104300      16.17623545      16.17806722      16.17662281      16.17264263      16.16682146      16.16028511      16.15384025      16.14785984      16.14302264      16.13918104      16.13632860      16.13402860      16.13202744      16.13007909      16.12827642      16.12664399      16.12535005      16.12457638
        15.26088824      15.26047274      15.25980669      15.25898260      15.25805558      15.25704190      15.25587284      15.25450995      15.25295667      15.25116508      15.24913574      15.24706188      15.24518899      15.24353789      15.24216221      15.24103525      15.24019981      15.23955180      15.23901597      15.23868905
        15.23852238      15.23845838      15.23864199      15.23924528      15.24054538      15.24275737      15.24580709      15.24894902      15.25173720      15.25425179      15.25660200      15.25888170      15.26112478      15.26324937      15.26534843      15.26758233      15.27005749      15.27264295      15.27557549      15.27897793