# File generated by Flopy version 3.7.0 on 06/26/2024 at 11:03:56.
BEGIN options
END options

BEGIN griddata
  strt
    INTERNAL  FACTOR  1.0
        15.00000000      15.00000000      15.00000000      15.00000000      15.00000000      15.00000000      15.00000000      15.00000000      15.00000000      15.00000000      15.00000000      15.00000000      15.00000000      15.00000000      15.00000000      15.00000000      15.00000000      15.00000000      15.00000000      15.00000000
        15.00000000      15.00000000      15.00000000      15.00000000      15.00000000      15.00000000      15.00000000      15.00000000      15.00000000      15.00000000      15.00000000      15.00000000      15.00000000      15.00000000      15.00000000      15.00000000      15.00000000      15.00000000      15.00000000      15.00000000
        15.00000000      15.00000000      15.00000000      15.00000000      15.00000000      15.00000000      15.00000000      15.00000000      15.00000000      15.00000000      15.00000000      15.00000000      15.00000000      15.00000000      15.00000000      15.00000000      15.00000000      15.00000000      15.00000000      15.00000000
        15.00000000      15.00000000      15.00000000      15.00000000      15.00000000      15.00000000      15.00000000      15.00000000      15.00000000      15.00000000      15.00000000      15.00000000      15.00000000      15.00000000      15.00000000      15.00000000      15.00000000      15.00000000      15.00000000      15.00000000
        15.00000000      15.00000000      15.00000000      15.00000000      15.00000000      15.00000000      15.00000000      15.00000000      15.00000000      15.00000000      15.00000000      15.00000000      15.00000000      15.00000000      15.00000000      15.00000000      15.00000000      15.00000000      15.00000000      15.00000000
        15.03901497      15.03959297      15.03998042      15.03891758      15.03622662      15.03242975      15.02812803      15.02444783      15.02099309      15.01728858      15.01392199      15.01135046      15.00911893      15.00727250      15.00599385      15.00516467      15.00466725      15.00435199      15.00427823      15.00438403
        15.00462125      15.00509250      15.00569607      15.00652594      15.00745752      15.00848375      15.00987534      15.01165710      15.01371179      15.01569421      15.01726832      15.01832497      15.01927979      15.02053841      15.02209485      15.02312718      15.02326701      15.02310752      15.02277403      15.02217850
        15.02157660      15.02031843      15.01862155      15.01712072      15.01596670      15.01538517      15.01540793      15.01613456      15.01744180      15.01858406      15.01940738      15.01948409      15.01911099      15.01835353      15.01745296      15.01656376      15.01655932      15.01725634      15.01742420      15.01685682
        15.01593901      15.01516389      15.01489139      15.01495233      15.01545108      15.01570532      15.01560272      15.01527704      15.01475250      15.01432917      15.01456723      15.01566589      15.01813570      15.02085243      15.02250451      15.02326325      15.02355702      15.02347678      15.02322153      15.02372503
        15.02494229      15.02712842      15.03049029      15.03460134      15.03826021      15.04132539      15.04444536      15.04709075      15.05033380      15.05401179      15.05841848      15.06404701      15.06870070      15.07069683      15.07150472      15.06984509      15.06736967      15.06522611      15.06484696      15.06624716
        15.07117407      15.07111865      15.06988296      15.06661100      15.06108911      15.05474442      15.04838438      15.04242211      15.03691698      15.03115533      15.02556874      15.02101861      15.01735585      15.01437978      15.01211564      15.01053531      15.00945806      15.00872748      15.00834473      15.00839212
        15.00882724      15.00979025      15.01115346      15.01283030      15.01476814      15.01681627      15.01940731      15.02278408      15.02626725      15.02930875      15.03161630      15.03345194      15.03548363      15.03805699      15.04072812      15.04237369      15.04375115      15.04509491      15.04569768      15.04570853
        15.04506196      15.04352633      15.04149909      15.03938278      15.03789250      15.03793798      15.03971996      15.04200943      15.04427959      15.04598592      15.04653038      15.04622029      15.04464994      15.04217453      15.04101828      15.04085982      15.04091553      15.04062123      15.03916904      15.03728614
        15.03604796      15.03576997      15.03614857      15.03714958      15.03816068      15.03893455      15.03886068      15.03869888      15.03900964      15.03975390      15.04142811      15.04373229      15.04651398      15.04841648      15.04918533      15.04930228      15.04867742      15.04753541      15.04668347      15.04801274
        15.05080918      15.05444583      15.05952369      15.06503669      15.07111864      15.07735392      15.08325174      15.08869743      15.09456946      15.10185037      15.10920329      15.11681227      15.12233082      15.12479070      15.12544873      15.12527729      15.12636186      15.12967997      15.13467483      15.13781508
        15.09302064      15.09120437      15.08765052      15.08270476      15.07641669      15.06970281      15.06322542      15.05658291      15.04995432      15.04313955      15.03669780      15.03098912      15.02609915      15.02192824      15.01845654      15.01568814      15.01359784      15.01204464      15.01109882      15.01099088
        15.01170431      15.01334634      15.01560096      15.01822350      15.02120973      15.02459434      15.02864970      15.03325744      15.03763798      15.04127992      15.04443066      15.04742573      15.05068347      15.05430648      15.05803915      15.06143644      15.06512294      15.06850581      15.07130576      15.07372676
        15.07432534      15.07327935      15.07184662      15.07112156      15.07194189      15.07422347      15.07648716      15.07891733      15.08115778      15.08175310      15.08054456      15.07837924      15.07565289      15.07326604      15.07125145      15.07048586      15.06955658      15.06763561      15.06505010      15.06322576
        15.06264320      15.06359685      15.06534790      15.06772000      15.06941722      15.07039429      15.07057242      15.07035562      15.07061348      15.07096821      15.07152410      15.07184706      15.07180290      15.07160580      15.07177136      15.07241520      15.07300661      15.07366726      15.07467811      15.07699908
        15.08039210      15.08439954      15.09010466      15.09773667      15.10614408      15.11369842      15.12116352      15.12899068      15.13715135      15.14580222      15.15325866      15.15829858      15.16285905      15.16721512      15.17236522      15.17863051      15.18595065      15.19397395      15.20003312      15.20303607
        15.10347931      15.10130046      15.09770108      15.09303795      15.08747442      15.08156577      15.07546141      15.06903043      15.06244938      15.05559240      15.04871774      15.04220337      15.03590832      15.02983803      15.02451195      15.01998717      15.01633585      15.01354451      15.01191564      15.01169996
        15.01285070      15.01545340      15.01900234      15.02323327      15.02803020      15.03307681      15.03843976      15.04375902      15.04875531      15.05354670      15.05807510      15.06245288      15.06679313      15.07166419      15.07701506      15.08324741      15.08992974      15.09641934      15.10275466      15.10778996
        15.11109679      15.11247818      15.11486418      15.11788734      15.12046791      15.12270834      15.12276883      15.12277598      15.12227793      15.12037185      15.11729609      15.11331889      15.10935635      15.10652987      15.10377775      15.10110088      15.09811469      15.09505560      15.09294954      15.09206170
        15.09283698      15.09490990      15.09763561      15.10019841      15.10139210      15.10145292      15.10105359      15.09970952      15.09774314      15.09549227      15.09354505      15.09195980      15.09130461      15.09233440      15.09529879      15.09941785      15.10370134      15.10776730      15.11135604      15.11432109
        15.11698436      15.12079999      15.12743338      15.13622282      15.14475988      15.15276167      15.16167072      15.17145293      15.18056946      15.18779554      15.19381548      15.19964712      15.20615068      15.21398297      15.22350580      15.23365035      15.24504823      15.25559932      15.26327046      15.26814192
        15.11078742      15.10887736      15.10609759      15.10255134      15.09793586      15.09277496      15.08738868      15.08160481      15.07567492      15.06924330      15.06229481      15.05500969      15.04698397      15.03839089      15.03032083      15.02332086      15.01763954      15.01306465      15.01004448      15.00942800
        15.01134573      15.01573787      15.02171631      15.02873857      15.03621580      15.04304328      15.04946707      15.05598680      15.06230185      15.06868638      15.07471786      15.08038515      15.08647483      15.09373224      15.10214714      15.11093275      15.12058885      15.13098214      15.14171222      15.15065802
        15.15936657      15.16622945      15.17197328      15.17483665      15.17516985      15.17357155      15.17075170      15.16720816      15.16237668      15.15724866      15.15174418      15.14601970      15.14051462      15.13564291      15.13169220      15.12766607      15.12389816      15.12134716      15.12055451      15.12125794
        15.12327939      15.12590300      15.12797206      15.12911999      15.12891781      15.12711885      15.12427332      15.12090359      15.11726032      15.11411130      15.11213280      15.11187872      15.11413584      15.11981026      15.12814801      15.13679277      15.14503297      15.15153768      15.15593950      15.15912874
        15.16214505      15.16694214      15.17408846      15.18201184      15.19004586      15.19929631      15.20899889      15.21943658      15.22826984      15.23521606      15.24279706      15.25316911      15.26292748      15.27260815      15.28325516      15.29587589      15.31044413      15.32248472      15.33176116      15.33720910
        15.11911298      15.11776077      15.11547906      15.11261665      15.10898231      15.10472093      15.10046719      15.09583549      15.09080183      15.08453017      15.07711348      15.06868731      15.05860132      15.04727574      15.03615575      15.02599678      15.01678405      15.00818747      15.00130445      14.99921438
        15.00273267      15.01133036      15.02273392      15.03476599      15.04583899      15.05496729      15.06358865      15.07274609      15.08107924      15.08930470      15.09719056      15.10590532      15.11557227      15.12688401      15.13973438      15.15376076      15.16780276      15.18211207      15.19475450      15.20589755
        15.21623564      15.22348543      15.22622569      15.22542553      15.22293581      15.21824653      15.21219686      15.20455077      15.19576896      15.18731688      15.17936082      15.17249061      15.16639227      15.16064349      15.15577877      15.15188609      15.14950851      15.14864039      15.14904056      15.15076976
        15.15287142      15.15419270      15.15413483      15.15267184      15.15057736      15.14727664      15.14297047      15.13878315      15.13501130      15.13306505      15.13389312      15.13793770      15.14676453      15.15993716      15.17331989      15.18466915      15.19369247      15.20021776      15.20540763      15.21158810
        15.21894101      15.22675666      15.23336732      15.24002202      15.24873967      15.25968284      15.27175604      15.28287989      15.29282032      15.30360808      15.31572901      15.32802175      15.33996336      15.35164785      15.36427886      15.37717044      15.38799364      15.39553793      15.40127655      15.40367520
        15.12992118      15.12869001      15.12675947      15.12461109      15.12245922      15.11980763      15.11681593      15.11280054      15.10755549      15.10055998      15.09207544      15.08220666      15.07036642      15.05634307      15.04196182      15.02733202      15.01125691      14.99226963      14.97437305      14.96767838
        14.97568642      14.99537729      15.01826489      15.03948516      15.05820141      15.07324922      15.08700312      15.09928453      15.11010479      15.12158678      15.13477980      15.14961725      15.16556557      15.18227760      15.19866777      15.21451370      15.22856066      15.24049125      15.25038743      15.25912499
        15.26527357      15.26852866      15.26788130      15.26486155      15.26001586      15.25254354      15.24295742      15.23248548      15.22161996      15.21152758      15.20227124      15.19504707      15.18914732      15.18395830      15.18018882      15.17823094      15.17744952      15.17694115      15.17705811      15.17715094
        15.17692408      15.17550111      15.17328817      15.17033389      15.16699674      15.16352102      15.16017032      15.15777165      15.15704172      15.15951043      15.16626255      15.17784625      15.19407128      15.21186480      15.22627918      15.23728800      15.24673027      15.25623424      15.26753849      15.28177467
        15.29492029      15.30613042      15.31817190      15.33039655      15.34253481      15.35496355      15.36582699      15.37239610      15.38023859      15.39211981      15.40492852      15.41627348      15.42758525      15.43885060      15.44921124      15.45630819      15.45954082      15.46108450      15.46210035      15.46255534
        15.14340123      15.14224296      15.14085955      15.13970638      15.13897484      15.13771009      15.13528209      15.13101928      15.12552959      15.11821104      15.10883075      15.09761423      15.08429669      15.06777103      15.04881622      15.02577819      14.99292869      14.94637777      14.89754401      14.87933807
        14.90439152      14.95222543      15.00191440      15.04396538      15.07810158      15.10382840      15.12517826      15.14342250      15.16012165      15.17808956      15.19717727      15.21611094      15.23400293      15.24945521      15.26237566      15.27328209      15.28277909      15.29036339      15.29740787      15.30219820
        15.30397106      15.30421861      15.30230670      15.29779092      15.29050545      15.28022778      15.26824970      15.25639765      15.24480710      15.23445312      15.22522251      15.21806746      15.21305187      15.20951734      15.20707081      15.20523581      15.20365154      15.20184152      15.19986082      15.19723546
        15.19425468      15.19133559      15.18844345      15.18573624      15.18313042      15.18138501      15.18139246      15.18391181      15.19030862      15.19985850      15.21413668      15.23258519      15.25267673      15.27083097      15.28563417      15.30091899      15.31818968      15.33714171      15.35920013      15.38263568
        15.40264529      15.41853976      15.43427925      15.44923713      15.45968807      15.46551252      15.46850891      15.46926714      15.47213085      15.47906831      15.48733503      15.49568912      15.50173900      15.50613956      15.50893783      15.51007234      15.50977065      15.50902382      15.50784168      15.50718712
        15.16170807      15.16081451      15.15948198      15.15885974      15.15862579      15.15758572      15.15529860      15.15180535      15.14693648      15.14021108      15.13120439      15.12002924      15.10612598      15.08737904      15.06130911      15.01875162      14.94640629      14.83088963      14.68907378      14.61589117
        14.70995670      14.84387093      14.96066649      15.04657176      15.10639073      15.14719796      15.18013050      15.20808714      15.23007357      15.24991444      15.26820727      15.28386680      15.29616321      15.30599189      15.31428339      15.32104099      15.32689890      15.33163308      15.33507147      15.33650822
        15.33619416      15.33443708      15.33060723      15.32407229      15.31466775      15.30341985      15.29145191      15.27955360      15.26817415      15.25851998      15.25083135      15.24485044      15.24063935      15.23698037      15.23382486      15.23033780      15.22614295      15.22226170      15.21806351      15.21415067
        15.20994562      15.20662344      15.20428655      15.20315397      15.20377465      15.20691107      15.21279347      15.22323460      15.23735614      15.25458240      15.27808270      15.30387995      15.32847435      15.35294798      15.37673019      15.40367331      15.43324788      15.46427877      15.49050568      15.51401903
        15.53095607      15.54194292      15.54998455      15.55450808      15.55604149      15.55385830      15.54997932      15.54715654      15.54642524      15.54865345      15.55196194      15.55412755      15.55401159      15.55215145      15.54924231      15.54692408      15.54553198      15.54482633      15.54345962      15.54234778
        15.18705104      15.18612514      15.18512171      15.18458085      15.18379545      15.18285547      15.18254143      15.18156493      15.17862091      15.17347114      15.16618050      15.15751920      15.14642380      15.12722085      15.08938297      15.01580804      14.87272545      14.59556188      14.10597438      14.01817217
        14.05261342      13.28640039      13.38974496      14.18411098      14.63733109      14.89538750      15.04252097      15.13369729      15.19209167      15.23612158      15.27075794      15.29407295      15.31096730      15.32468520      15.33534152      15.34418895      15.35180124      15.35820821      15.36217772      15.36445556
        15.36568376      15.36593946      15.36552823      15.36348190      15.35918720      15.35284280      15.34449063      15.33450288      15.32351682      15.31267969      15.30261122      15.29332440      15.28536243      15.27893241      15.27355088      15.26904167      15.26443905      15.25915556      15.25358450      15.24742389
        15.24151735      15.23634429      15.22871349      15.22706627      15.23644071      15.23459753      15.22808978      15.22544844      15.22512176      15.22779148      15.23381238      15.24424841      15.25969792      15.28096358      15.30514360      15.33475453      15.37097927      15.40695567      15.44214796      15.47880973
        15.51030815      15.54153375      15.57315328      15.60110100      15.61714043      15.62834874      15.63331453      15.63302203      15.63065260      15.62454116      15.61804398      15.61249692      15.60666398      15.60210472      15.59953975      15.59839448      15.59694015      15.59398326      15.59063037      15.58709530
        15.58368278      15.58060858      15.57800302      15.57554671      15.57374273      15.57276605      15.21752026      15.21784487      15.21887625      15.22027402      15.22225865      15.22379279      15.22539200      15.22615861      15.22679149      15.22641027      15.22534395      15.22442954      15.22054650      15.20327981
        15.15600551      15.05055719      14.83343028      14.39812089      13.76966118      13.09728778      13.71758506      13.05726372      12.34569630      11.87076616      11.62866888      10.77137813      10.16237630      10.07477151       8.94235891       8.17675428       8.13941520       5.16324591      12.08558958      12.75402195
        10.55053143      11.30636648       9.10066425       9.91231106       8.24612718       9.64391048      10.89374818      12.27814387      11.72323087      10.38628902       9.02215407       8.20891924       9.80845221       9.57357042      11.09998677      10.76197828      12.40106736      12.05251926       9.07644762       9.93979711
         9.91077097      10.36225745      11.04456504      10.99042637      11.52524736      12.33507121      12.23688980      12.80096169      13.44245253      13.97061178      13.44659629      13.95599226      14.48716050      14.84543109      15.04166499      15.15811135      15.22807121      15.27875197      15.31756285      15.34194636
        15.35705906      15.36803552      15.37730142      15.38529702      15.39156956      15.39524247      15.39619884      15.39560490      15.39438113      15.39227860      15.38906080      15.38453392      15.37842611      15.37163421      15.36371892      15.35509510      15.34606911      15.33721013      15.32949945      15.32204308
        15.31480785      15.30758119      15.30102247      15.29552508      15.29008275      15.28375790      15.27664792      15.26965677      15.26298821      15.25344287      15.25071629      15.26330860      15.26217442      15.24562225      15.24433525      15.25159068      15.24977390      15.24928884      15.25260885      15.25182413
        15.25159810      15.25320069      15.25312422      15.24330353      15.24301070      15.24881336      15.24860788      15.25137045      15.25126937      15.25293300      15.25265085      15.25147973      15.24919820      15.25846807      15.25619119      15.25503372      15.25475156      15.25636134      15.25626238      15.25885108
        15.25864603      15.26365317      15.26343456      15.25457105      15.25451566      15.25606899      15.25587288      15.25516876      15.25829444      15.25791993      15.25642804      15.26287985      15.26207473      15.24504867      15.24544647      15.25842706      15.25734971      15.25243061      15.25645484      15.26501957
        15.27938696      15.30078829      15.32820565      15.36063706      15.39880792      15.44138605      15.48734454      15.52688312      15.56203737      15.59806763      15.62588665      15.65097039      15.67285754      15.68727667      15.69101424      15.69071118      15.68726951      15.68071557      15.67271756      15.66346500
        15.65477207      15.64789779      15.64239714      15.63790331      15.63443935      15.63142663      15.62809050      15.62515376      15.62203770      15.61851543      15.61492819      15.61062597      15.60623388      15.60181656      15.59866245      15.59686078      15.26144146      15.26533091      15.26926570      15.27262145
        15.27702587      15.28060749      15.28482716      15.29047844      15.29768678      15.30433475      15.31313918      15.32027281      15.32286252      15.30753757      15.25258350      15.13388828      14.90905150      14.51110289      13.92318838      13.20482749      13.34501726      13.80100464      13.86304713      14.06413621
        14.56508545      14.88103992      15.07132323      15.18717537      15.26100466      15.31652770      15.35720919      15.38164264      15.39607796      15.40598419      15.41365979      15.41870951      15.42140800      15.42157158      15.41980149      15.41710152      15.41399581      15.41031253      15.40548506      15.40026713
        15.39475428      15.38932973      15.38363498      15.37753459      15.37090768      15.36403768      15.35718308      15.34924063      15.34076383      15.33222891      15.32453363      15.31800003      15.31150121      15.30539636      15.29919526      15.29341989      15.28898668      15.28605155      15.27754139      15.27705646
        15.29170596      15.29193436      15.28679742      15.29243953      15.30220650      15.31850687      15.34233239      15.37409543      15.41198449      15.45611539      15.50382143      15.54999433      15.59042890      15.62157490      15.64796529      15.67371055      15.69129275      15.70557894      15.71544755      15.71984814
        15.71803051      15.71377550      15.70782285      15.70037994      15.69207423      15.68311449      15.67548307      15.66917310      15.66415129      15.66031377      15.65737669      15.65494728      15.65273353      15.65054646      15.64739005      15.64308175      15.63801937      15.63244924      15.62677338      15.62166511
        15.61760977      15.61517601      15.33213568      15.33382064      15.33609903      15.33981437      15.34549822      15.35114834      15.35959394      15.37058177      15.38424605      15.39796830      15.41160762      15.42059854      15.42106481      15.39689886      15.33131617      15.21498543      15.03961688      14.79505455
        14.52246695      14.39260783      14.52441644      14.76769788      14.97963555      15.12938376      15.23208172      15.30313965      15.35636937      15.39423803      15.41684697      15.42885340      15.43437396      15.43708451      15.43795446      15.43715628      15.43487658      15.43186019      15.42847156      15.42489266
        15.42112254      15.41708200      15.41292855      15.40863981      15.40456149      15.40042668      15.39582711      15.39037731      15.38400925      15.37683435      15.36859903      15.35953949      15.35044875      15.34235498      15.33575328      15.33030510      15.32614118      15.32333012      15.32193304      15.32239017
        15.32508176      15.32894311      15.33659170      15.34837760      15.36580476      15.39062938      15.42097122      15.46044260      15.50651185      15.55683881      15.60209637      15.63722232      15.66243712      15.67940539      15.69097612      15.70234394      15.70957939      15.71541077      15.71918062      15.72074463
        15.71902901      15.71551745      15.71075845      15.70475396      15.69805226      15.69078012      15.68483297      15.68018075      15.67662565      15.67415857      15.67237015      15.67063139      15.66860383      15.66587739      15.66241305      15.65794869      15.65260273      15.64699964      15.64164674      15.63713939
        15.63381174      15.63190187      15.42074280      15.41863390      15.41853657      15.42516925      15.43334124      15.44113558      15.45225826      15.46416529      15.47665633      15.48720001      15.49392368      15.49376678      15.48097244      15.44340984      15.37595449      15.28215444      15.16010861      15.00632315
        14.85730389      14.79591242      14.85007395      14.97410600      15.10755351      15.21589642      15.29635662      15.35286865      15.39369004      15.42220307      15.43810819      15.44418278      15.44480793      15.44410597      15.44309080      15.44154426      15.43929230      15.43662444      15.43369645      15.43071373
        15.42761124      15.42444703      15.42142319      15.41809477      15.41458645      15.41097787      15.40684112      15.40187214      15.39600955      15.38930242      15.38177145      15.37352201      15.36503467      15.35771697      15.35273993      15.35023769      15.35019913      15.35233166      15.35596524      15.36098796
        15.36929274      15.38003297      15.39498773      15.41438381      15.43863801      15.46857580      15.50336372      15.54659757      15.59160649      15.63170905      15.65977865      15.67685987      15.68468112      15.68633049      15.68733061      15.69181944      15.69613424      15.70061182      15.70450378      15.70737693
        15.70777974      15.70583667      15.70242347      15.69808328      15.69343978      15.68853288      15.68484482      15.68216341      15.68038316      15.67930410      15.67845546      15.67738099      15.67568807      15.67328164      15.67038197      15.66697184      15.66304862      15.65882776      15.65492503      15.65200005
        15.65009461      15.64903812      15.52716641      15.52683453      15.52790424      15.53296811      15.53784575      15.54145430      15.54528551      15.54808747      15.55009487      15.54688676      15.53775294      15.52222721      15.49823520      15.46083701      15.40737735      15.33901440      15.25945455      15.17180160
        15.09620883      15.06942739      15.09443985      15.16142931      15.23906319      15.30358422      15.35207382      15.38559421      15.41036721      15.42811968      15.43788709      15.44132094      15.44145657      15.44104927      15.44075619      15.44022387      15.43918275      15.43769626      15.43582624      15.43373243
        15.43143591      15.42894588      15.42642472      15.42377355      15.42093990      15.41784392      15.41428967      15.40996382      15.40490638      15.39918779      15.39291967      15.38622089      15.37918470      15.37351477      15.37102260      15.37203283      15.37615692      15.38308857      15.39203100      15.40276677
        15.41642100      15.43182282      15.45047929      15.47268266      15.49774959      15.52702596      15.55924904      15.59346387      15.62325111      15.64424175      15.65447620      15.65819825      15.65845144      15.65935366      15.66218154      15.66775810      15.67395575      15.68019221      15.68560203      15.68928064
        15.69001241      15.68889682      15.68701558      15.68488950      15.68279733      15.68064674      15.67933587      15.67861193      15.67848285      15.67880571      15.67913971      15.67913405      15.67854750      15.67734668      15.67572849      15.67388189      15.67190611      15.67008981      15.66844762      15.66699722
        15.66583004      15.66488348      15.64232937      15.64059632      15.63852559      15.63548646      15.62780716      15.61727258      15.60664196      15.59470027      15.58166491      15.56422945      15.54269859      15.51954113      15.49407746      15.46138785      15.42069203      15.37467979      15.32720965      15.28336037
        15.24955831      15.23886129      15.25170991      15.28351535      15.31949508      15.35117596      15.37616600      15.39440577      15.40917340      15.42043598      15.42757252      15.43124374      15.43302875      15.43416340      15.43522304      15.43610131      15.43650042      15.43631923      15.43557895      15.43447736