# File generated by Flopy version 3.7.0 on 07/26/2024 at 13:14:05.
BEGIN options
END options

BEGIN griddata
  strt
    INTERNAL  FACTOR  1.0
        15.00000000      15.00000000      15.00000000      15.00000000      15.00000000      15.00000000      15.00000000      15.00000000      15.00000000      15.00000000      15.00000000      15.00000000      15.00000000      15.00000000      15.00000000      15.00000000      15.00000000      15.00000000      15.00000000      15.00000000
        15.00000000      15.00000000      15.00000000      15.00000000      15.00000000      15.00000000      15.00000000      15.00000000      15.00000000      15.00000000      15.00000000      15.00000000      15.00000000      15.00000000      15.00000000      15.00000000      15.00000000      15.00000000      15.00000000      15.00000000
        15.00000000      15.00000000      15.00000000      15.00000000      15.00000000      15.00000000      15.00000000      15.00000000      15.00000000      15.00000000      15.00000000      15.00000000      15.00000000      15.00000000      15.00000000      15.00000000      15.00000000      15.00000000      15.00000000      15.00000000
        15.00000000      15.00000000      15.00000000      15.00000000      15.00000000      15.00000000      15.00000000      15.00000000      15.00000000      15.00000000      15.00000000      15.00000000      15.00000000      15.00000000      15.00000000      15.00000000      15.00000000      15.00000000      15.00000000      15.00000000
        15.00000000      15.00000000      15.00000000      15.00000000      15.00000000      15.00000000      15.00000000      15.00000000      15.00000000      15.00000000      15.00000000      15.00000000      15.00000000      15.00000000      15.00000000      15.00000000      15.00000000      15.00000000      15.00000000      15.00000000
        15.10457065      15.10762982      15.11167283      15.11476563      15.11435325      15.11134307      15.10662008      15.10248935      15.10028147      15.09984511      15.09841951      15.09412996      15.08815244      15.08141374      15.07498797      15.06850091      15.06205215      15.05571678      15.04919709      15.04322095
        15.03756085      15.03276327      15.02845428      15.02444355      15.02097591      15.01838055      15.01693199      15.01620954      15.01580102      15.01525259      15.01465080      15.01406926      15.01385070      15.01403841      15.01469008      15.01561139      15.01651994      15.01790748      15.02010542      15.02337882
        15.02747781      15.03181622      15.03551247      15.03861574      15.04147028      15.04394502      15.04676257      15.04936125      15.05131736      15.05245054      15.05284865      15.05383844      15.05710587      15.06129797      15.06508129      15.06817575      15.07006975      15.07065189      15.07038945      15.06829487
        15.06521812      15.06165314      15.05746642      15.05269318      15.04890026      15.04533769      15.04187290      15.03918249      15.03858392      15.04081415      15.04563874      15.05202902      15.06002565      15.06893757      15.07831939      15.08714169      15.09518881      15.10288749      15.10851459      15.11248607
        15.11594205      15.12052006      15.12690283      15.13521788      15.14493814      15.15753925      15.17089621      15.18399996      15.19386602      15.19582244      15.19031023      15.18065688      15.16968999      15.15718097      15.14398824      15.13282774      15.12120680      15.11032565      15.10410329      15.10217393
        15.17333889      15.17588434      15.17879693      15.18010912      15.17817674      15.17373241      15.16759487      15.16091526      15.15518406      15.15040114      15.14462491      15.13745725      15.12969913      15.12208290      15.11450664      15.10638768      15.09810183      15.08978180      15.08117718      15.07268882
        15.06476547      15.05716204      15.05039276      15.04446791      15.03948870      15.03584504      15.03336886      15.03165591      15.03033200      15.02903872      15.02808114      15.02760323      15.02760231      15.02817456      15.02922683      15.03067602      15.03250319      15.03554873      15.04012622      15.04611744
        15.05292679      15.05986672      15.06590468      15.07118221      15.07589969      15.08009537      15.08436503      15.08836580      15.09199974      15.09531769      15.09854379      15.10257209      15.10761373      15.11256873      15.11631125      15.11807578      15.11854407      15.11754439      15.11504638      15.11038849
        15.10494891      15.09941147      15.09383606      15.08812597      15.08293127      15.07809238      15.07410658      15.07207024      15.07336388      15.07864566      15.08693342      15.09802394      15.11173935      15.12749197      15.14416671      15.15972730      15.17398742      15.18537767      15.19371173      15.20093795
        15.20906720      15.22021216      15.23539871      15.25465636      15.27637421      15.29948640      15.32136721      15.34028640      15.35055288      15.34796927      15.33749998      15.32040071      15.30116023      15.28216383      15.26278736      15.24616287      15.23270020      15.22303653      15.21776707      15.21681721
        15.21640515      15.21661362      15.21618452      15.21450809      15.21142248      15.20612223      15.19908953      15.19100653      15.18309067      15.17575096      15.16828373      15.16062089      15.15295082      15.14545750      15.13786064      15.12968399      15.12112593      15.11228088      15.10328754      15.09417138
        15.08544382      15.07690867      15.06901811      15.06216511      15.05635284      15.05191634      15.04848110      15.04560448      15.04314273      15.04138068      15.04044649      15.04043373      15.04116416      15.04218584      15.04354375      15.04563001      15.04893171      15.05386917      15.06043429      15.06795601
        15.07603838      15.08417247      15.09156318      15.09815320      15.10429913      15.11054771      15.11690127      15.12302187      15.12833580      15.13339551      15.13837041      15.14312491      15.14735086      15.15097217      15.15316405      15.15364738      15.15283300      15.15039593      15.14609229      15.14087717
        15.13533951      15.12947196      15.12329359      15.11690595      15.11079792      15.10591666      15.10319739      15.10344102      15.10753129      15.11556077      15.12754095      15.14339488      15.16109026      15.17978248      15.19891259      15.21715070      15.23370692      15.24710617      15.25874228      15.27154401
        15.28760713      15.30867139      15.33388643      15.36177879      15.39007023      15.41631117      15.43815056      15.45335001      15.46000221      15.45512649      15.44244083      15.42392244      15.40235658      15.38106370      15.36104547      15.34528447      15.33397055      15.32722940      15.32273194      15.32116009
        15.23818511      15.23719879      15.23504660      15.23179781      15.22754229      15.22168237      15.21417332      15.20563772      15.19717904      15.18935244      15.18206573      15.17489896      15.16766695      15.16026629      15.15287896      15.14502119      15.13685858      15.12822528      15.11939475      15.11062451
        15.10204393      15.09370118      15.08563947      15.07829295      15.07198803      15.06663154      15.06221187      15.05848534      15.05550898      15.05372596      15.05317056      15.05368745      15.05485688      15.05641637      15.05852668      15.06168191      15.06666899      15.07327740      15.08070336      15.08849005
        15.09669286      15.10484704      15.11260790      15.12036005      15.12855297      15.13682401      15.14469789      15.15166568      15.15747014      15.16243720      15.16703681      15.17110968      15.17452342      15.17732295      15.17856747      15.17820263      15.17649470      15.17360752      15.16983239      15.16557321
        15.16070147      15.15530842      15.14963332      15.14423058      15.13941882      15.13609160      15.13544013      15.13796360      15.14449764      15.15501576      15.16955120      15.18699793      15.20484043      15.22285751      15.24105505      15.25963196      15.27736852      15.29399978      15.31073566      15.32992475
        15.35248996      15.37787779      15.40578810      15.43586934      15.46491594      15.48986384      15.50871197      15.52050901      15.52450307      15.52065573      15.51046159      15.49598739      15.47777693      15.45818169      15.44087237      15.42700123      15.41727255      15.40996890      15.40434663      15.40138645
        15.24697995      15.24554895      15.24266578      15.23857717      15.23363758      15.22782005      15.22072975      15.21294536      15.20504844      15.19760260      15.19065424      15.18384597      15.17706094      15.17005425      15.16297829      15.15563597      15.14799197      15.14011545      15.13188705      15.12377034
        15.11587944      15.10804741      15.10037391      15.09302021      15.08630742      15.08028738      15.07501964      15.07084258      15.06801109      15.06656679      15.06630260      15.06707597      15.06845778      15.07058207      15.07379259      15.07849698      15.08496850      15.09227331      15.09951975      15.10709081
        15.11512539      15.12347281      15.13204284      15.14101394      15.15030281      15.15896267      15.16647967      15.17266412      15.17772385      15.18205506      15.18596080      15.18950210      15.19224703      15.19406058      15.19465750      15.19399150      15.19256634      15.19070233      15.18838769      15.18533570
        15.18156412      15.17769519      15.17410826      15.17090064      15.16858881      15.16819899      15.17021897      15.17506564      15.18291349      15.19423825      15.20828503      15.22423209      15.24071721      15.25733917      15.27493120      15.29449528      15.31501215      15.33532646      15.35570390      15.37716487
        15.40011310      15.42477681      15.45218635      15.48115014      15.50786464      15.52961796      15.54583178      15.55663360      15.56114104      15.56019290      15.55384007      15.54354586      15.53033812      15.51485294      15.49948160      15.48632807      15.47657901      15.46891830      15.46323307      15.45996650
        15.24876139      15.24678677      15.24346898      15.23924847      15.23452608      15.22923078      15.22314579      15.21661889      15.20970345      15.20283111      15.19635070      15.19002133      15.18366495      15.17714768      15.17053635      15.16380356      15.15686985      15.14978361      15.14237856      15.13489557
        15.12765036      15.12035696      15.11316162      15.10620148      15.09947722      15.09321449      15.08763196      15.08337645      15.08077852      15.07945265      15.07921052      15.07976012      15.08121348      15.08406133      15.08879018      15.09521294      15.10258728      15.10988197      15.11699717      15.12473689
        15.13321489      15.14209627      15.15103597      15.16011639      15.16871799      15.17612951      15.18230669      15.18735563      15.19143929      15.19504235      15.19835182      15.20133308      15.20342237      15.20457077      15.20506686      15.20499841      15.20437840      15.20356379      15.20229580      15.20043842
        15.19828341      15.19649023      15.19543451      15.19478228      15.19521565      15.19767097      15.20215546      15.20883633      15.21754166      15.22869512      15.24184367      15.25675612      15.27248603      15.28907754      15.30783748      15.32956381      15.35250990      15.37453341      15.39546230      15.41548568
        15.43683485      15.46050738      15.48619562      15.51170150      15.53430999      15.55369099      15.56898117      15.58023368      15.58633764      15.58652603      15.58150719      15.57300382      15.56233865      15.54984462      15.53674227      15.52488963      15.51531359      15.50820472      15.50277707      15.49972760
        15.24682002      15.24450057      15.24123081      15.23739819      15.23328692      15.22884151      15.22396121      15.21861493      15.21276090      15.20665934      15.20065757      15.19477349      15.18883234      15.18280441      15.17666315      15.17038068      15.16404861      15.15756244      15.15084590      15.14391514
        15.13719026      15.13064404      15.12417630      15.11783524      15.11162951      15.10568499      15.10042923      15.09637650      15.09379856      15.09247504      15.09226129      15.09285778      15.09474287      15.09857627      15.10451402      15.11183745      15.11958389      15.12673447      15.13393127      15.14197692
        15.15061932      15.15925523      15.16756548      15.17567774      15.18271002      15.18843033      15.19316794      15.19707993      15.20036501      15.20345337      15.20641713      15.20899162      15.21092027      15.21218700      15.21300313      15.21356047      15.21371349      15.21351695      15.21311359      15.21277057
        15.21260479      15.21283417      15.21356599      15.21494656      15.21732769      15.22141417      15.22742984      15.23521812      15.24475638      15.25611183      15.26949075      15.28477963      15.30151439      15.31982621      15.34015476      15.36298789      15.38650682      15.40807333      15.42745457      15.44608510
        15.46628734      15.48823042      15.51101340      15.53257580      15.55218982      15.57019820      15.58501508      15.59607671      15.60234179      15.60262039      15.59828136      15.59071503      15.58152036      15.57079736      15.55933790      15.54837034      15.53901318      15.53222574      15.52727276      15.52447486
        15.24373345      15.24150134      15.23860660      15.23534812      15.23185819      15.22827650      15.22438418      15.21993650      15.21495043      15.20963027      15.20417313      15.19871447      15.19313868      15.18741806      15.18169719      15.17582839      15.16991560      15.16394315      15.15779922      15.15142565
        15.14509797      15.13910667      15.13333398      15.12776757      15.12237495      15.11729558      15.11297710      15.10949090      15.10706438      15.10593675      15.10598184      15.10736350      15.11055145      15.11561401      15.12226657      15.12971546      15.13678422      15.14326621      15.15013824      15.15766595
        15.16542400      15.17291179      15.18006446      15.18653974      15.19185870      15.19618763      15.19988645      15.20312027      15.20608074      15.20899834      15.21185523      15.21448313      15.21670957      15.21835703      15.21966077      15.22082414      15.22174798      15.22235012      15.22299972      15.22386067
        15.22497024      15.22647705      15.22822698      15.23070520      15.23416470      15.23928272      15.24609833      15.25439566      15.26453084      15.27693562      15.29186395      15.30875964      15.32705558      15.34632601      15.36721394      15.38994479      15.41272437      15.43329618      15.45218620      15.47063412
        15.48944885      15.50912535      15.52883802      15.54729282      15.56482730      15.58155118      15.59540391      15.60537250      15.61118848      15.61188527      15.60829601      15.60145016      15.59301717      15.58329039      15.57284145      15.56256603      15.55342261      15.54656272      15.54195664      15.53949857
        15.24083868      15.23897790      15.23655179      15.23389039      15.23108582      15.22820836      15.22496770      15.22116378      15.21681400      15.21208097      15.20715581      15.20207524      15.19690044      15.19161232      15.18624006      15.18077094      15.17523642      15.16970585      15.16404825      15.15819795
        15.15233260      15.14674549      15.14159987      15.13688742      15.13253157      15.12860248      15.12537788      15.12273314      15.12085498      15.12022238      15.12116404      15.12395355      15.12853526      15.13453295      15.14133556      15.14778912      15.15332429      15.15867654      15.16441503      15.17046029
        15.17667537      15.18279610      15.18857098      15.19357583      15.19775359      15.20133657      15.20457685      15.20762218      15.21053885      15.21354331      15.21657360      15.21941129      15.22192966      15.22406210      15.22595668      15.22774446      15.22928718      15.23057677      15.23185084      15.23335832
        15.23520022      15.23734843      15.24013054      15.24400184      15.24899424      15.25510938      15.26259011      15.27166033      15.28290477      15.29669861      15.31247397      15.32938130      15.34744558      15.36672636      15.38760249      15.40957580      15.43134545      15.45187338      15.47114470      15.48954435
        15.50741668      15.52497241      15.54182510      15.55766705      15.57293164      15.58763047      15.60011160      15.60897035      15.61426692      15.61545805      15.61243924      15.60606073      15.59805927      15.58900001      15.57932216      15.56979345      15.56131030      15.55479750      15.55058522      15.54852560
        15.23864727      15.23719738      15.23523770      15.23313454      15.23093719      15.22855200      15.22574902      15.22248903      15.21873928      15.21448471      15.20989140      15.20517193      15.20040642      15.19553700      15.19054814      15.18548603      15.18039175      15.17523148      15.16994924      15.16456702
        15.15920854      15.15414955      15.14970030      15.14589416      15.14266732      15.13999452      15.13778206      15.13617433      15.13528241      15.13568245      15.13783930      15.14161411      15.14660221      15.15237983      15.15802588      15.16267851      15.16667599      15.17079364      15.17521171      15.17986158
        15.18482826      15.18986939      15.19459099      15.19881341      15.20252486      15.20582814      15.20893958      15.21200103      15.21505111      15.21818118      15.22134856      15.22440623      15.22727121      15.22990867      15.23230080      15.23448882      15.23643852      15.23817345      15.23983559      15.24187343
        15.24445929      15.24772886      15.25226037      15.25809139      15.26472223      15.27214817      15.28067937      15.29087563      15.30295691      15.31672863      15.33146295      15.34709321      15.36412101      15.38272534      15.40295086      15.42405653      15.44519048      15.46567405      15.48512862      15.50366292
        15.52020469      15.53500612      15.54888812      15.56231291      15.57512530      15.58731789      15.59769895      15.60548271      15.61012627      15.61166194      15.60923592      15.60338234      15.59615044      15.58809671      15.57948093      15.57095666      15.56344976      15.55761779      15.55382736      15.55209513
        15.23731033      15.23618450      15.23464297      15.23299131      15.23117706      15.22912795      15.22671762      15.22389269      15.22062286      15.21682740      15.21259244      15.20816233      15.20371941      15.19926442      15.19466883      15.18994268      15.18523302      15.18048292      15.17562391      15.17069646
        15.16593924      15.16156547      15.15788797      15.15497906      15.15270708      15.15110839      15.14993372      15.14944778      15.14974533      15.15115744      15.15385437      15.15755137      15.16196258      15.16647392      15.17027509      15.17337913      15.17636250      15.17965420      15.18325961      15.18714282
        15.19135354      15.19572670      15.19991098      15.20373112      15.20722277      15.21038911      15.21342144      15.21640835      15.21943910      15.22262948      15.22594528      15.22926341      15.23250763      15.23563766      15.23854961      15.24125038      15.24372015      15.24608457      15.24846695      15.25136290
        15.25515697      15.26008270      15.26631302      15.27359073      15.28153295      15.28999751      15.29921979      15.30980804      15.32195446      15.33485538      15.34809131      15.36237373      15.37817678      15.39598348      15.41545176      15.43555169      15.45550210      15.47492049      15.49410894      15.51197204
        15.52676791      15.53870184      15.54973554      15.56053615      15.57057998      15.57968782      15.58742590      15.59371552      15.59719991      15.59816806      15.59649604      15.59192576      15.58604216      15.57925366      15.57246188      15.56592365      15.55996597      15.55504699      15.55177313      15.55034203
        15.23667676      15.23583545      15.23462909      15.23325357      15.23168734      15.22985709      15.22771352      15.22523807      15.22236391      15.21901608      15.21523952      15.21122588      15.20712515      15.20299400      15.19882636      15.19455281      15.19027463      15.18601449      15.18173445      15.17742948
        15.17326889      15.16951896      15.16646808      15.16432851      15.16296948      15.16217652      15.16185661      15.16210214      15.16306341      15.16485497      15.16738605      15.17056021      15.17404428      15.17713729      15.17963423      15.18195139      15.18450085      15.18728906      15.19034861      15.19371476
        15.19747146      15.20141730      15.20521726      15.20871677      15.21188594      15.21471965      15.21749976      15.22034104      15.22335168      15.22667179      15.23018667      15.23381170      15.23752369      15.24124852      15.24490197      15.24823514      15.25150065      15.25500181      15.25868654      15.26285212
        15.26807840      15.27442437      15.28162978      15.28933743      15.29777661      15.30658789      15.31605014      15.32658889      15.33808462      15.34986679      15.36189707      15.37509876      15.38998842      15.40677565      15.42473719      15.44273824      15.46059110      15.47878174      15.49708874      15.51351170
        15.52627703      15.53566952      15.54393044      15.55171428      15.55856108      15.56436144      15.56920264      15.57339840      15.57553319      15.57583257      15.57493706      15.57182835      15.56759909      15.56299361      15.55873425      15.55454802      15.55044063      15.54683379      15.54444183      15.54341744
        15.23660336      15.23594094      15.23493310      15.23371367      15.23231767      15.23071121      15.22879006      15.22655225      15.22400034      15.22107785      15.21776772      15.21421666      15.21058431      15.20689276      15.20324917      15.19967128      15.19618579      15.19272534      15.18923053      15.18561157
        15.18198759      15.17868790      15.17606286      15.17431797      15.17341866      15.17302449      15.17305692      15.17358235      15.17486959      15.17676002      15.17910824      15.18164201      15.18405530      15.18606364      15.18783220      15.18973380      15.19199389      15.19448950      15.19720888      15.20030469
        15.20379575      15.20730558      15.21052111      15.21339679      15.21601876      15.21851438      15.22113229      15.22392607      15.22705008      15.23061236      15.23438410      15.23836119      15.24262191      15.24711123      15.25157291      15.25584991      15.26046376      15.26552442      15.27068416      15.27603459
        15.28229330      15.28932832      15.29669330      15.30427234      15.31256515      15.32132796      15.33053608      15.34025326      15.35058403      15.36148897      15.37258525      15.38472469      15.39841250      15.41345793      15.42923374      15.44508613      15.46091220      15.47715243      15.49360201      15.50809667
        15.51911394      15.52656659      15.53225693      15.53713192      15.54146323      15.54499640      15.54766760      15.54994168      15.55127593      15.55155026      15.55114455      15.54912595      15.54614655      15.54345553      15.54107517      15.53883646      15.53667739      15.53491424      15.53376193      15.53335370
        15.23686090      15.23631295      15.23544417      15.23436649      15.23311624      15.23169056      15.22998436      15.22797021      15.22571337      15.22316634      15.22029044      15.21721999      15.21415547      15.21109123      15.20815280      15.20538003      15.20279377      15.20029173      15.19767724      15.19477467
        15.19172452      15.18883562      15.18639936      15.18456173      15.18343639      15.18301319      15.18321120      15.18411298      15.18564085      15.18748681      15.18946453      15.19124441      15.19271124      15.19404154      15.19542900      15.19708074      15.19907031      15.20135368      15.20395089      15.20682072
        15.20982033      15.21259607      15.21507288      15.21738232      15.21964360      15.22196487      15.22451933      15.22746934      15.23089532      15.23475212      15.23881110      15.24324022      15.24824398      15.25371883      15.25950877      15.26543884      15.27147657      15.27762968      15.28386579      15.29012024
        15.29664746      15.30350869      15.31070837      15.31799684      15.32560710      15.33377561      15.34218247      15.35083198      15.36022783      15.37023339      15.38030951      15.39109104      15.40308670      15.41623304      15.43004325      15.44398745      15.45792310      15.47199622      15.48608966      15.49837853
        15.50755711      15.51354182      15.51733075      15.52045019      15.52327515      15.52562998      15.52738902      15.52870088      15.52946244      15.52947980      15.52911024      15.52803114      15.52630717      15.52499278      15.52402374      15.52342618      15.52300357      15.52279111      15.52230963      15.52212120
        15.23731974      15.23688568      15.23615015      15.23521345      15.23409954      15.23283716      15.23139694      15.22967929      15.22769774      15.22545879      15.22301593      15.22042329      15.21785195      15.21544099      15.21318112      15.21108754      15.20914416      15.20728931      15.20534456      15.20316955
        15.20085397      15.19849910      15.19619005      15.19419459      15.19276644      15.19224005      15.19267662      15.19386663      15.19536599      15.19692235      15.19839981      15.19961487      15.20058831      15.20157177      15.20271509      15.20403740      15.20563819      15.20762583      15.20981829      15.21215114
        15.21448114      15.21667441      15.21875994      15.22081966      15.22294086      15.22527909      15.22802958      15.23132844      15.23512216      15.23926213      15.24380084      15.24903345      15.25510390      15.26181499      15.26894812      15.27618337      15.28311815      15.29024784      15.29749148      15.30417561
        15.31038633      15.31672246      15.32344918      15.33005588      15.33690550      15.34427938      15.35176082      15.35940457      15.36768389      15.37660909      15.38544950      15.39447137      15.40440928      15.41559884      15.42777620      15.44025927      15.45256600      15.46459385      15.47626173      15.48660080
        15.49409694      15.49860411      15.50111167      15.50331659      15.50522255      15.50703662      15.50832177      15.50918006      15.50966377      15.50963025      15.50958870      15.50957317      15.50937759      15.50944665      15.50977972      15.51004383      15.51031432      15.51035556      15.51001476      15.50960625
        15.23782886      15.23751451      15.23694063      15.23617911      15.23525013      15.23418183      15.23295512      15.23155103      15.22995184      15.22808227      15.22598050      15.22376616      15.22157520      15.21956466      15.21774649      15.21613042      15.21464386      15.21323792      15.21181532      15.21023944
        15.20849563      15.20660353      15.20469310      15.20296320      15.20170554      15.20132946      15.20196942      15.20311285      15.20423971      15.20521417      15.20610580      15.20691350      15.20769201      15.20849681      15.20935798      15.21032657      15.21159388      15.21304602      15.21456521      15.21630198
        15.21817730      15.22006539      15.22199911      15.22401661      15.22619855      15.22871950      15.23181704      15.23556111      15.23976249      15.24436895      15.24975469      15.25606923      15.26323048      15.27096620      15.27915002      15.28754400      15.29579869      15.30387315      15.31122983      15.31750150
        15.32305566      15.32850270      15.33434373      15.34033320      15.34651553      15.35294518      15.35960739      15.36624034      15.37320273      15.38067281      15.38786867      15.39498443      15.40290950      15.41217410      15.42263932      15.43374948      15.44452512      15.45472890      15.46420295      15.47256575
        15.47862356      15.48239718      15.48447284      15.48579552      15.48693616      15.48804921      15.48887974      15.48962751      15.49057886      15.49132144      15.49221595      15.49343542      15.49458507      15.49544007      15.49626563      15.49676719      15.49709114      15.49708233      15.49687564      15.49647036
        15.23828803      15.23807862      15.23767435      15.23709342      15.23634875      15.23548424      15.23450076      15.23336948      15.23209234      15.23060831      15.22889092      15.22701536      15.22513812      15.22337403      15.22185410      15.22057809      15.21950381      15.21847064      15.21737387      15.21618018
        15.21479529      15.21323544      15.21176967      15.21053536      15.20975335      15.20967261      15.21035042      15.21120660      15.21178884      15.21222526      15.21263471      15.21313128      15.21373141      15.21434625      15.21497966      15.21568463      15.21654342      15.21747541      15.21861635      15.22001203