# File generated by Flopy version 3.7.0 on 06/11/2024 at 13:54:40.
BEGIN options
END options

BEGIN griddata
  icelltype
    CONSTANT  0
  k
    INTERNAL  FACTOR  1.0
    6.89351756E-04  4.80716385E-04  3.09479476E-04  3.02023372E-04  2.81203881E-04  2.15850458E-04  2.04187461E-04  2.02569865E-04  1.00101650E-04  5.80874443E-05  3.50322752E-05  2.06007545E-05  1.34034258E-05  1.69304443E-05  3.23210845E-05  5.02904976E-05  7.20652202E-05  1.21190605E-04  1.76358435E-04  2.37483245E-04
    2.44415635E-04  2.36185531E-04  3.31858469E-04  5.44265968E-04  6.80985121E-04  8.05390209E-04  6.33226096E-04  4.92211527E-04  3.43841103E-04  1.90033601E-04  1.15888281E-04  7.29875975E-05  6.27275183E-05  6.87400079E-05  6.38198602E-05  5.55934724E-05  7.44809761E-05  8.39604931E-05  1.83431162E-04  3.20889966E-04
    2.84630805E-04  2.64374810E-04  1.98511516E-04  1.17432454E-04  6.90910482E-05  7.05276643E-05  9.31259017E-05  9.70294624E-05  1.19600371E-04  1.49734866E-04  1.62999860E-04  1.59677620E-04  1.75763362E-04  2.43884520E-04  3.32586647E-04  2.98989581E-04  3.32097532E-04  3.95553281E-04  2.63886720E-04  1.01469312E-04
    5.89309316E-05  6.19955112E-05  6.43104218E-05  8.59265205E-05  9.25926163E-05  8.14426072E-05  1.03407584E-04  8.68229899E-05  4.45203774E-05  4.47644648E-05  8.94412267E-05  2.49865868E-04  4.64370757E-04  9.08112794E-04       0.00186271       0.00291020       0.00340416       0.00426774       0.00288548       0.00198605
         0.00137362  9.08016932E-04  4.92163475E-04  2.95647715E-04  1.79178573E-04  1.99775045E-04  2.28334614E-04  2.57799704E-04  2.59062569E-04  2.31221686E-04  3.11360083E-04  2.20912554E-04  1.05704408E-04  6.41456804E-05  6.03472493E-05  5.76273853E-05  6.30632166E-05  7.20614374E-05  1.06695751E-04  1.58829034E-04
    1.70341062E-04  1.85780147E-04  2.73873009E-04  2.08658144E-04  1.60125001E-04  9.93006809E-05  7.70987549E-05  7.53554827E-05  7.82225463E-05  4.57116064E-05  2.81329577E-05  2.01405260E-05  2.62840111E-05  4.05503902E-05  5.98251084E-05  1.30638426E-04  2.29973277E-04  3.17956865E-04  2.49798969E-04  1.52142523E-04
    1.66889307E-04  2.24083712E-04  3.55876302E-04  5.17218081E-04  7.06952200E-04  5.90189421E-04  4.25023923E-04  4.03195028E-04  2.23961502E-04  1.06311303E-04  6.84460875E-05  5.88177054E-05  6.31836959E-05  7.05072892E-05  7.86598127E-05  8.20488303E-05  1.34021722E-04  2.29858710E-04  2.10516237E-04  1.76142105E-04
    1.83512102E-04  1.46027089E-04  9.68635913E-05  7.19356601E-05  7.55116058E-05  1.08609054E-04  8.64107650E-05  6.28892647E-05  5.14874572E-05  7.32982434E-05  8.05074522E-05  1.21915944E-04  1.23430501E-04  1.66309602E-04  2.25496832E-04  2.31507341E-04  1.79430301E-04  1.44072262E-04  1.01975717E-04  7.41344386E-05
    6.49126778E-05  5.07161259E-05  4.36442483E-05  2.84450495E-05  2.29041074E-05  2.82305127E-05  2.42442020E-05  2.22785127E-05  3.83732404E-05  1.13476241E-04  2.65600584E-04  6.54403598E-04  9.51978026E-04       0.00136553       0.00154756       0.00207349       0.00215070       0.00190485       0.00182307       0.00127674
         0.00102083  6.10778184E-04  3.62494155E-04  2.34769558E-04  1.76791254E-04  1.43656073E-04  1.79739696E-04  1.76798349E-04  1.75605336E-04  1.45510678E-04  7.96506484E-05  4.79048755E-05  4.61721829E-05  4.55749121E-05  5.14336952E-05  5.37300681E-05  8.40349807E-05  2.11126988E-04  4.41188152E-04  5.58837037E-04
    2.89277793E-04  2.63818525E-04  1.85416648E-04  1.48493828E-04  1.29387555E-04  1.26727080E-04  1.22798351E-04  1.04714571E-04  7.66265962E-05  5.59290578E-05  4.77026390E-05  6.29037268E-05  6.51136955E-05  1.02667117E-04  1.32598898E-04  1.28620641E-04  1.23704471E-04  1.00669920E-04  8.87561998E-05  1.39005846E-04
    2.21447860E-04  2.72726286E-04  3.71888370E-04  4.28367781E-04  5.06204087E-04  6.41700843E-04  3.24181757E-04  1.40354423E-04  7.04812760E-05  5.56877307E-05  6.28724098E-05  8.95485509E-05  9.75036156E-05  1.33491324E-04  1.55915268E-04  1.56509514E-04  1.43246015E-04  1.27214658E-04  1.07883259E-04  8.88503218E-05
    7.84887575E-05  5.41459209E-05  2.59008257E-05  3.30268733E-05  3.89538470E-05  3.97172026E-05  4.00751604E-05  5.19278616E-05  8.35602001E-05  1.23739597E-04  1.65279655E-04  2.15242439E-04  2.64415888E-04  2.80036527E-04  1.94326389E-04  2.10630542E-04  2.35601858E-04  2.35080674E-04  1.76394260E-04  1.15039592E-04
    1.18681444E-04  8.20930326E-05  3.12651565E-05  1.80804341E-05  1.91167637E-05  2.01476286E-05  3.34895960E-05  5.01936303E-05  9.17041794E-05  2.28341872E-04  4.66664197E-04  6.01387891E-04  6.80293929E-04  5.33179680E-04  4.77735567E-04  6.58082898E-04  7.37350251E-04       0.00119034       0.00125128  9.67246730E-04
    5.75079998E-04  4.91187193E-04  4.69188100E-04  3.57819014E-04  2.64324575E-04  2.00241661E-04  1.34471080E-04  8.19155228E-05  5.25531000E-05  3.58567088E-05  4.45948666E-05  5.27561880E-05  4.89665058E-05  4.17187629E-05  3.41838038E-05  5.18520458E-05  1.33950574E-04  3.08307145E-04  3.36713840E-04  3.26039218E-04
    2.37787066E-04  2.83906362E-04  2.67487413E-04  2.27907006E-04  2.29996693E-04  2.36865603E-04  1.49517094E-04  8.19658481E-05  5.51036644E-05  5.27882310E-05  5.80517939E-05  5.45661222E-05  7.01287930E-05  4.81986888E-05  3.44016073E-05  3.88781741E-05  6.10206905E-05  8.78342489E-05  1.32044497E-04  1.66546159E-04
    2.03501373E-04  3.20803952E-04  4.44620978E-04  5.14377429E-04  3.21760757E-04  1.46590165E-04  6.26686867E-05  5.10527930E-05  5.25995235E-05  7.52258393E-05  1.02822807E-04  1.16275029E-04  1.12334314E-04  1.02914189E-04  1.25910218E-04  1.24261136E-04  9.36878341E-05  8.05546541E-05  5.36269932E-05  3.56528948E-05
    2.80091096E-05  2.70991149E-05  2.80518008E-05  3.33256965E-05  4.97239143E-05  6.60407364E-05  1.03578425E-04  1.60186712E-04  3.53841730E-04  4.64982676E-04  5.46548353E-04  5.39693233E-04  4.35285855E-04  2.99479288E-04  3.54385131E-04  5.12126150E-04  4.03088256E-04  2.75037453E-04  2.02753560E-04  1.48568121E-04
    1.25323974E-04  5.47655473E-05  3.53762086E-05  3.87909362E-05  4.58371774E-05  7.70391830E-05  1.15235792E-04  1.32963444E-04  2.40285853E-04  4.08002662E-04  5.40663254E-04  4.48586618E-04  2.76442458E-04  2.22581297E-04  3.25787891E-04  4.76955818E-04  6.22136748E-04  6.71123243E-04  7.10015120E-04  7.04298263E-04
         0.00102899       0.00123122       0.00139405  9.58371843E-04  4.84181340E-04  1.67299216E-04  8.08387182E-05  4.38968511E-05  2.62889590E-05  2.50586162E-05  2.53107376E-05  2.03117606E-05  1.43540161E-05  1.56186493E-05  2.15626461E-05  3.60104246E-05  5.34121371E-05  8.53479734E-05  2.46604950E-04  6.08231223E-04
    1.49811312E-04  1.66892041E-04  1.70763918E-04  1.71584078E-04  1.61287629E-04  9.11678587E-05  7.68520196E-05  7.21689316E-05  6.01369841E-05  5.69479937E-05  6.01843210E-05  5.98038087E-05  5.55224340E-05  5.98565602E-05  6.83839622E-05  7.35642701E-05  1.12337843E-04  1.66568673E-04  1.69348543E-04  1.87831635E-04
    3.01477944E-04  3.97301835E-04  3.15242463E-04  1.52024617E-04  1.04972904E-04  7.95785476E-05  5.50971852E-05  3.79563797E-05  4.37287363E-05  6.19228569E-05  5.49955323E-05  4.89601848E-05  7.00436746E-05  9.83695337E-05  8.81963420E-05  1.06600219E-04  8.59983188E-05  5.94026614E-05  7.58634331E-05  8.03972345E-05
    6.45893152E-05  7.30174043E-05  7.34315510E-05  8.08312916E-05  1.08517218E-04  1.21678629E-04  1.74187287E-04  2.86995880E-04  3.70703265E-04  5.67723878E-04  6.62233414E-04  5.44128304E-04  3.75334151E-04  3.67051717E-04  2.49894970E-04  1.62560651E-04  1.54988292E-04  2.10430917E-04  1.85189730E-04  1.45689310E-04
    1.47197744E-04  1.94813454E-04  2.08277900E-04  2.34681267E-04  1.95748715E-04  1.42969131E-04  1.42299840E-04  2.37755066E-04  2.57823595E-04  2.50290554E-04  1.79922669E-04  1.45888736E-04  1.25338546E-04  1.22962661E-04  1.31950957E-04  1.94511044E-04  3.59353294E-04  6.55013806E-04       0.00114338       0.00161360
         0.00256919       0.00341630       0.00237497  9.08706490E-04  2.58204632E-04  9.15089569E-05  4.68243508E-05  3.09040114E-05  2.19506335E-05  1.75796208E-05  1.38537542E-05  1.31221306E-05  1.42605589E-05  1.60580671E-05  2.44454240E-05  4.37861068E-05  1.14255358E-04  3.84926772E-04       0.00107527       0.00279907
    7.68385164E-05  4.91850277E-05  3.89575871E-05  4.18220403E-05  6.00545892E-05  7.74920386E-05  8.72033800E-05  7.80705201E-05  9.26297970E-05  1.41833057E-04  1.88591810E-04  2.54888832E-04  2.41058203E-04  2.07499383E-04  1.70740393E-04  1.37476014E-04  1.55132323E-04  1.93262993E-04  2.26919297E-04  2.50027646E-04
    1.56755678E-04  1.53638130E-04  1.21197248E-04  8.41019414E-05  5.28702522E-05  4.05124272E-05  2.65690106E-05  1.60727048E-05  1.12045263E-05  9.67891445E-06  1.46984163E-05  2.99607824E-05  5.11424244E-05  7.42898635E-05  1.21336225E-04  1.69728762E-04  2.26045905E-04  2.63334082E-04  3.03357603E-04  3.87134650E-04
    3.41728173E-04  1.81755104E-04  1.62975766E-04  1.73770517E-04  2.13607361E-04  2.70720609E-04  2.88484139E-04  2.11211724E-04  2.14544900E-04  1.83049568E-04  1.50446665E-04  1.21200234E-04  8.68725660E-05  7.30796111E-05  7.19944652E-05  8.23622963E-05  1.05039237E-04  1.34719102E-04  2.12822988E-04  2.78741617E-04
    4.43782000E-04  4.34864934E-04  3.00159540E-04  2.05619024E-04  1.94618583E-04  2.11415540E-04  2.35819088E-04  1.92890716E-04  1.93341051E-04  1.95457261E-04  1.39545789E-04  1.30461338E-04  1.11382551E-04  9.74905412E-05  1.37264678E-04  2.67511349E-04  7.47431781E-04       0.00181246       0.00330498       0.00365698
         0.00259348       0.00145132  7.12809833E-04  4.04677806E-04  1.38248057E-04  6.01062778E-05  2.91218931E-05  2.67810204E-05  2.40104310E-05  2.72066380E-05  2.95012587E-05  2.90921447E-05  5.17352795E-05  7.59380889E-05  1.45179636E-04  4.75393860E-04       0.00137747       0.00245715       0.00412593       0.00354186
    1.61889387E-05  1.75887259E-05  2.09101503E-05  3.65356652E-05  5.24762564E-05  8.30924719E-05  1.98112636E-04  3.47456770E-04  5.62857782E-04  7.90884944E-04  6.71139644E-04  5.80953451E-04  3.59202905E-04  2.31846814E-04  1.91061644E-04  1.90136394E-04  2.11030353E-04  1.93305465E-04  1.73662329E-04  1.33299156E-04
    1.64894726E-04  2.17967715E-04  1.48015034E-04  1.01394064E-04  6.08227346E-05  3.97193723E-05  1.50618757E-05  8.14741660E-06  7.69230178E-06  1.16843552E-05  2.40449422E-05  4.95669850E-05  7.60035348E-05  1.27566526E-04  2.89468537E-04  6.86838155E-04       0.00156949       0.00200656       0.00156197  9.97759903E-04
    5.31414806E-04  2.75012032E-04  3.40673393E-04  4.93951990E-04  3.98652983E-04  2.74401463E-04  2.95987245E-04  2.64847155E-04  1.24653500E-04  1.07419086E-04  9.07919828E-05  7.72524052E-05  8.97597913E-05  1.07121706E-04  1.34356245E-04  1.77733716E-04  2.32727318E-04  3.87118581E-04  6.68609864E-04  6.97458036E-04
    7.33826946E-04  5.31990097E-04  3.96348089E-04  2.94867008E-04  2.64378244E-04  2.29312195E-04  1.78776614E-04  1.51492630E-04  1.91526502E-04  2.57844307E-04  2.06911610E-04  1.60337613E-04  1.35884152E-04  1.23727821E-04  2.89743070E-04  6.57392771E-04       0.00105248       0.00180136       0.00145904  8.49712779E-04
    5.24896270E-04  3.02228140E-04  1.75716330E-04  1.05743232E-04  5.61229904E-05  3.20418504E-05  3.38706932E-05  3.64452563E-05  4.63741993E-05  6.65650022E-05  1.28896582E-04  1.46540546E-04  1.76085764E-04  3.01048707E-04  6.49118064E-04       0.00110047       0.00162753       0.00207122       0.00163819  9.96852502E-04
    9.37183206E-06  1.03664308E-05  2.00806152E-05  5.71288513E-05  1.39434215E-04  1.88746279E-04  1.82126382E-04  2.48973526E-04  3.62738660E-04  3.87172942E-04  2.88516827E-04  2.78028729E-04  3.35257602E-04  3.24702879E-04  2.56780404E-04  1.84263084E-04  1.91693726E-04  2.26559051E-04  2.20247948E-04  2.42422498E-04
    1.77090601E-04  1.82800115E-04  1.28682398E-04  8.61662992E-05  7.36625404E-05  5.04082956E-05  2.84491392E-05  1.77998509E-05  2.08960813E-05  3.18637541E-05  6.72961491E-05  1.95168698E-04  4.08171478E-04  7.25417534E-04       0.00174905       0.00347642       0.00383118       0.00291797       0.00188200  9.98182577E-04
    5.08972256E-04  3.80918603E-04  5.03541840E-04  3.57789917E-04  3.42199204E-04  2.41901360E-04  1.24726080E-04  1.12438958E-04  1.12807470E-04  1.23325574E-04  1.85899478E-04  2.11627859E-04  2.41943739E-04  2.44696155E-04  2.06786191E-04  2.95680803E-04  5.06700863E-04  5.90451548E-04  5.74961768E-04  5.75445606E-04
    5.50667038E-04  3.40358781E-04  1.67227018E-04  1.44669536E-04  1.16182106E-04  1.49643610E-04  1.98488804E-04  2.39408242E-04  2.65976318E-04  3.11321422E-04  2.90145289E-04  3.85262107E-04  5.75512535E-04  5.39331728E-04  5.77299697E-04  6.63736003E-04  5.97746604E-04  3.89085496E-04  1.99145776E-04  1.67785542E-04
    2.03517113E-04  1.73608945E-04  8.01512498E-05  5.21063524E-05  4.04921577E-05  4.18507635E-05  5.73927894E-05  1.03101118E-04  2.30430924E-04  3.00317783E-04  3.42592104E-04  3.57811685E-04  4.34104821E-04  4.95506823E-04  6.03257913E-04  5.90973631E-04  6.26913243E-04  5.24203399E-04  5.95052828E-04  7.35931444E-04
    7.33035155E-06  1.13178096E-05  2.79783494E-05  4.54474150E-05  5.34833783E-05  5.81900072E-05  5.60229795E-05  8.86274745E-05  1.60402815E-04  2.80004586E-04  3.52258431E-04  4.00796868E-04  3.41625236E-04  2.25793007E-04  1.94919548E-04  1.78798293E-04  1.53541923E-04  1.68859636E-04  1.79468212E-04  1.00089145E-04
    9.61658680E-05  9.16388780E-05  9.62911856E-05  1.00569599E-04  8.64251354E-05  5.00584683E-05  3.00561814E-05  3.11056642E-05  5.16855786E-05  1.51695058E-04  3.35962074E-04  5.95414401E-04       0.00114007       0.00202576       0.00353256       0.00378852       0.00384524       0.00295556       0.00192945       0.00104231
    6.32059163E-04  5.26679499E-04  3.74776952E-04  2.15112111E-04  1.56195558E-04  1.45290081E-04  1.35480801E-04  1.51740949E-04  1.59165251E-04  1.60754172E-04  1.42061706E-04  1.62728362E-04  1.77730785E-04  2.55100308E-04  4.22311304E-04  5.37716989E-04  6.74006314E-04  6.50997039E-04  4.61806201E-04  2.84536695E-04
    1.73712498E-04  1.09040986E-04  1.12530428E-04  1.06281721E-04  1.14158499E-04  1.16414187E-04  1.52367309E-04  1.73734928E-04  2.68514060E-04  3.84357458E-04  3.91942716E-04  4.76816107E-04  5.37546288E-04  4.53283231E-04  3.33945916E-04  2.69747069E-04  2.03229020E-04  2.00844674E-04  2.39126123E-04  2.51817082E-04
    1.57834761E-04  1.35592270E-04  1.01257074E-04  6.10678530E-05  5.80379764E-05  8.77000626E-05  1.60248864E-04  1.85055435E-04  1.87441262E-04  1.81453762E-04  2.18873318E-04  2.72666946E-04  2.92682235E-04  3.92193031E-04  4.71477595E-04  4.18870175E-04  5.29469565E-04  7.78299979E-04  6.63704851E-04  6.53786651E-04
    1.69280845E-05  2.19810441E-05  2.48395101E-05  3.69316843E-05  5.43964719E-05  5.29355256E-05  5.10058282E-05  7.72049393E-05  1.36660829E-04  1.65080207E-04  1.54567098E-04  1.53391443E-04  1.43741429E-04  1.26565193E-04  1.19482222E-04  8.29088725E-05  8.01446190E-05  7.45976654E-05  6.93816698E-05  7.59069455E-05
    7.20747934E-05  8.05504386E-05  1.10354322E-04  9.05015182E-05  6.41215776E-05  4.94582284E-05  6.01763755E-05  1.13430939E-04  3.01932678E-04  5.92730901E-04       0.00117167       0.00246248       0.00252313       0.00228336       0.00252451       0.00314633       0.00263078       0.00230374       0.00159629       0.00108087
    5.16134305E-04  3.04891907E-04  1.69273975E-04  8.48978950E-05  7.05568406E-05  7.93175388E-05  9.43864980E-05  9.73040141E-05  8.37371477E-05  1.02536514E-04  1.94321986E-04  3.33859455E-04  3.24672277E-04  3.61234760E-04  6.34442456E-04  7.39663213E-04  5.30334660E-04  2.57221969E-04  1.62276918E-04  1.11930015E-04
    6.87789088E-05  4.23477494E-05  5.11421355E-05  6.53037094E-05  8.31526801E-05  8.97908724E-05  9.35943725E-05  1.16062000E-04  8.13568350E-05  6.89957861E-05  9.59382865E-05  1.15259149E-04  1.36173015E-04  1.33860539E-04  1.53639439E-04  1.31706404E-04  1.01521901E-04  1.40361961E-04  1.82200404E-04  1.67055559E-04
    1.18372958E-04  7.39788275E-05  5.82660217E-05  6.34844609E-05  8.09735899E-05  1.10307271E-04  1.10096651E-04  9.34331853E-05  1.23166595E-04  1.44079115E-04  2.43419095E-04  3.03476222E-04  2.98583941E-04  3.86990789E-04  5.12412675E-04  7.62454101E-04  9.58087237E-04  6.42130875E-04  3.85659853E-04  4.05384310E-04
    1.58538329E-05  2.60410194E-05  3.10094883E-05  3.53429787E-05  4.52785527E-05  7.14250515E-05  7.64484686E-05  7.77174712E-05  5.28454719E-05  5.02294605E-05  6.76739116E-05  9.92499067E-05  1.22313508E-04  1.24828345E-04  1.02996376E-04  9.49818654E-05  9.92796468E-05  8.65968281E-05  8.16194481E-05  6.64598623E-05
    6.64598623E-05  6.64598623E-05  6.64598623E-05  5.75100830E-05  7.07920185E-05  9.33798514E-05  8.94611044E-05  1.00641457E-04  1.26851118E-04  2.17369916E-04  4.56915645E-04       0.00114274       0.00171391       0.00225341       0.00257686       0.00361028       0.00402498       0.00359353       0.00187154       0.00125232
         0.00103392  7.79623513E-04  6.02644488E-04  3.42769179E-04  1.52596904E-04  8.75669162E-05  8.72168388E-05  7.75622003E-05  6.68243633E-05  5.80316149E-05  5.71804976E-05  8.69491242E-05  1.99866946E-04  2.79077378E-04  2.87523800E-04  3.48074394E-04  5.31151064E-04  4.42510015E-04  2.79110983E-04  1.78899970E-04
    1.38052658E-04  1.03579912E-04  6.00484144E-05  6.00484144E-05  6.00484144E-05  6.00484144E-05  3.46962316E-05  3.71112127E-05  4.79597541E-05  6.35902204E-05  6.45582130E-05  5.21951195E-05  3.39897580E-05  2.06001363E-05  2.26954525E-05  3.18489959E-05  2.87331817E-05  2.94253249E-05  3.46150393E-05  5.03165932E-05
    5.35814463E-05  4.44128517E-05  6.12968238E-05  9.70990222E-05  1.27882663E-04  8.13517783E-05  6.95612760E-05  8.42254720E-05  8.38583188E-05  7.39283162E-05  7.80558258E-05  8.71926642E-05  1.27511803E-04  1.64528924E-04  1.93322970E-04  2.35344648E-04  3.02834075E-04  3.85195172E-04  4.86477959E-04  8.26767576E-04
    9.29270469E-04  7.00474826E-04  4.88776657E-04  3.92764466E-04  4.75892566E-04  7.57941036E-04  3.19502122E-05  3.29478367E-05  3.82570471E-05  4.13596740E-05  3.84412918E-05  2.56729299E-05  2.60123493E-05  3.17050024E-05  3.77556075E-05  1.11451643E-04  2.23944785E-04  2.30697432E-04  2.13458202E-04  1.88221350E-04
    1.85856790E-04  1.63406067E-04  1.61958535E-04  1.43289349E-04  1.26530137E-04  1.26530137E-04  1.26530137E-04  1.26530137E-04  8.93464370E-05  8.93464370E-05  8.93464370E-05  8.93464370E-05  8.93464370E-05  8.93464370E-05  8.93464370E-05  8.93464370E-05  8.93464370E-05  8.93464370E-05  8.93464370E-05  8.93464370E-05
    8.93464370E-05  8.93464370E-05  8.93464370E-05  8.93464370E-05  8.93464370E-05  8.93464370E-05  8.93464370E-05  8.93464370E-05  8.93464370E-05  8.93464370E-05  8.93464370E-05  8.93464370E-05  8.93464370E-05  8.93464370E-05  8.93464370E-05  8.93464370E-05  8.93464370E-05  8.93464370E-05  8.93464370E-05  8.93464370E-05
    8.93464370E-05  8.93464370E-05  8.93464370E-05  8.93464370E-05  8.93464370E-05  8.93464370E-05  8.93464370E-05  8.93464370E-05  1.03876215E-04  1.03876215E-04  1.03876215E-04  1.03876215E-04  1.09333112E-04  1.12132180E-04  1.38230062E-04  2.12596670E-04  4.13201959E-04  8.32389111E-04       0.00163919       0.00228425
         0.00299710       0.00266071       0.00265749       0.00294874       0.00219587  9.27392823E-04  5.53308988E-04  4.85012160E-04  5.69401062E-04  4.53031570E-04  3.20128510E-04  2.14302545E-04  1.69303091E-04  1.27717552E-04  8.17143770E-05  6.71039033E-05  4.94259841E-05  5.45707758E-05  1.18459614E-04  2.91978983E-04
    4.70684647E-04  4.30639095E-04  3.79679407E-04  3.31638076E-04  2.35535084E-04  1.63022901E-04  1.16192623E-04  8.70395541E-05  5.62747533E-05  5.66746136E-05  5.66746136E-05  5.66746136E-05  5.66746136E-05  6.42105805E-05  6.42105805E-05  6.42105805E-05  6.42105805E-05  6.42105805E-05  6.42105805E-05  6.42105805E-05
    6.42105805E-05  6.42105805E-05  6.42105805E-05  6.42105805E-05  6.42105805E-05  6.42105805E-05  6.42105805E-05  6.42105805E-05  6.42105805E-05  6.42105805E-05  6.42105805E-05  6.42105805E-05  6.42105805E-05  6.42105805E-05  6.42105805E-05  6.42105805E-05  6.42105805E-05  6.42105805E-05  6.42105805E-05  6.42105805E-05
    6.42105805E-05  6.42105805E-05  6.42105805E-05  6.42105805E-05  6.42105805E-05  6.42105805E-05  6.42105805E-05  6.42105805E-05  6.42105805E-05  6.42105805E-05  6.42105805E-05  6.42105805E-05  6.42105805E-05  8.94401056E-05  8.94401056E-05  8.94401056E-05  8.94401056E-05  1.50216554E-04  1.82615162E-04  1.09722801E-04
    4.63547777E-05  3.19496009E-05  2.14148837E-05  1.53205277E-05  1.51318861E-05  1.68710401E-05  2.74574448E-05  3.43424193E-05  5.60301918E-05  8.32575771E-05  1.05998220E-04  1.18433275E-04  1.45895724E-04  1.05937647E-04  6.81744256E-05  4.94217146E-05  5.49617963E-05  6.97366728E-05  6.69143992E-05  6.91638818E-05
    1.13718102E-04  1.30278018E-04  1.16619648E-04  1.12346933E-04  1.68298748E-04  2.40924881E-04  3.66706976E-04  4.45132811E-04  4.09498647E-04  4.49275558E-04  6.19049213E-04  4.93183338E-04  4.24627945E-04  3.67791512E-04  6.81357788E-04       0.00141890  4.76202857E-05  4.25198003E-05  2.61123827E-05  2.32541981E-05
    1.79246290E-05  1.89151275E-05  2.07757969E-05  3.10266250E-05  5.14523067E-05  1.01818223E-04  1.29591793E-04  1.43344743E-04  1.58917617E-04  1.38262452E-04  1.64598137E-04  2.51155390E-04  3.26893905E-04  2.78037967E-04  2.44913825E-04  2.16411607E-04  2.16411607E-04  2.16411607E-04  2.16411607E-04  1.44523127E-04
    9.48668584E-05  1.15554382E-04  1.47403860E-04  2.75263680E-04  5.99224180E-04       0.00129749       0.00249408       0.00218061       0.00179929       0.00106230  6.34880363E-04  3.42408241E-04  2.84728471E-04  2.07549596E-04  2.32296142E-04  2.38740243E-04  1.89434378E-04  1.70951664E-04  2.04569342E-04  1.63818763E-04
    9.77987122E-05  7.06221233E-05  5.32125637E-05  4.76952691E-05  5.82987311E-05  9.29352390E-05  1.63190870E-04  2.61220923E-04  2.74067148E-04  2.03816348E-04  1.30281513E-04  1.08358991E-04  1.03333129E-04  9.31617895E-05  8.73748594E-05  1.01168980E-04  1.46248408E-04  3.11282440E-04  4.65023663E-04  4.65023663E-04
    4.65023663E-04  4.65023663E-04  5.36073021E-04  3.39209891E-04  1.76350988E-04  9.57684579E-05  5.64434165E-05  3.61455933E-05  2.91548941E-05  2.24490172E-05  2.33856506E-05  4.50845900E-05  9.37439935E-05  1.64917739E-04  3.30400950E-04  5.64056367E-04  4.02465803E-04  2.76508341E-04  1.98701824E-04  1.04480349E-04
    6.85619850E-05  9.60468813E-05  9.90317804E-05  8.78914572E-05  6.15250376E-05  5.26169848E-05  4.25281276E-05  4.76443288E-05  6.26547458E-05  1.05918783E-04  1.57333988E-04  1.92417996E-04  2.56581391E-04  2.77370676E-04  2.73902223E-04  2.31429195E-04  1.98525732E-04  1.66563110E-04  2.27041275E-04  5.89247870E-04
         0.00189604       0.00324197  5.43447256E-05  5.64200482E-05  3.36917986E-05  2.53652372E-05  1.95614674E-05  1.53849888E-05  1.99625409E-05  3.11333509E-05  5.75657997E-05  7.20673288E-05  7.95004817E-05  6.74702406E-05  7.12188624E-05  1.34436398E-04  3.47482182E-04  4.88163217E-04  6.67239083E-04  5.30107194E-04
    2.69898702E-04  1.27790849E-04  7.39088299E-05  8.18078366E-05  1.56029719E-04  2.82797255E-04  4.66137884E-04  8.28496381E-04       0.00100071  9.11804643E-04  7.63823157E-04  5.88435776E-04  3.29377724E-04  2.52842234E-04  2.19365764E-04  2.56091736E-04  2.72520886E-04  1.98279366E-04  1.66775954E-04  2.11264038E-04
    1.76000184E-04  1.04824191E-04  5.78622078E-05  4.78588461E-05  6.50438221E-05  7.28614714E-05  7.00259588E-05  7.98220808E-05  1.22835466E-04  1.68114193E-04  1.72263699E-04  1.19675012E-04  8.55110618E-05  7.57895786E-05  8.22466810E-05  9.65217394E-05  1.04604200E-04  1.50718465E-04  3.28899684E-04  5.49662875E-04
    8.74595666E-04       0.00111758  9.83951979E-04  4.10297060E-04  2.69313536E-04  1.71104901E-04  9.36206797E-05  5.81082562E-05  4.34630384E-05  6.12864101E-05  8.46386138E-05  1.65065166E-04  3.60299864E-04  6.05461375E-04  4.85892507E-04  3.88442688E-04  2.32571043E-04  2.13838112E-04  1.63250118E-04  1.53700839E-04
    1.68472666E-04  1.69238032E-04  1.35190957E-04  9.17935562E-05  7.04199308E-05  5.81686889E-05  6.57643759E-05  7.64158953E-05  1.04910146E-04  1.56640396E-04  1.58695053E-04  1.59231988E-04  1.62096314E-04  1.41828091E-04  1.89064293E-04  2.26869176E-04  3.37165697E-04  6.94603452E-04       0.00163684       0.00267150
         0.00243660       0.00184566  2.09424579E-05  1.73848808E-05  1.54012875E-05  1.77094360E-05  1.55581672E-05  1.88344489E-05  3.84900025E-05  7.47598394E-05  7.94998288E-05  8.41994660E-05  7.27632324E-05  9.57261927E-05  1.51909965E-04  2.04723211E-04  3.04139361E-04  3.39936804E-04  2.31465909E-04  1.49408508E-04
    1.37661614E-04  1.37129977E-04  1.36038899E-04  1.79352882E-04  2.39541010E-04  2.76937387E-04  3.33975679E-04  4.23062600E-04  3.73453575E-04  4.14772083E-04  2.89039758E-04  2.89531972E-04  2.08740026E-04  1.38401997E-04  1.42872254E-04  1.46425316E-04  1.53032518E-04  1.66084910E-04  1.73398762E-04  1.63076846E-04
    1.26865715E-04  1.07490132E-04  1.06702410E-04  1.42580678E-04  1.05419983E-04  9.47073071E-05  8.80982659E-05  1.06419492E-04  8.71023008E-05  6.88117287E-05  6.19266296E-05  6.40283139E-05  8.73555289E-05  1.64407893E-04  1.97378789E-04  3.39357120E-04  4.30143916E-04  4.28196854E-04  6.47079196E-04  9.14503329E-04
    8.20235054E-04  5.61368265E-04  4.57117516E-04  5.51192564E-04  3.90844593E-04  2.12991712E-04  1.73069511E-04  1.75245787E-04  1.89883851E-04  2.40572210E-04  2.77344795E-04  5.86111338E-04  7.28990443E-04  7.44022972E-04  6.52773482E-04  4.57040934E-04  2.68660669E-04  1.95868809E-04  1.59923160E-04  1.61897046E-04
    1.34504177E-04  1.28280398E-04  1.39093060E-04  1.24012644E-04  1.23304409E-04  1.14753746E-04  1.23059086E-04  1.29924440E-04  9.99952875E-05  7.48470880E-05  1.28532139E-04  1.56655493E-04  1.79920562E-04  1.94517682E-04  2.70746101E-04  5.32625563E-04  8.97996659E-04       0.00171117       0.00232318       0.00254231
         0.00240246       0.00206746  2.27488559E-05  2.75257405E-05  3.68656886E-05  4.51827241E-05  5.54828617E-05  7.88483824E-05  6.35084726E-05  3.52060872E-05  2.38322279E-05  4.23599817E-05  8.10561284E-05  1.18061314E-04  1.45262320E-04  2.05425692E-04  1.72464084E-04  2.21987289E-04  2.66071520E-04  2.14265481E-04
    1.61348652E-04  1.36694705E-04  1.31683128E-04  1.83705146E-04  2.31949083E-04  2.34063077E-04  1.14761448E-04  8.95885067E-05  1.01160134E-04  1.24578350E-04  1.24016618E-04  1.14704423E-04  1.04500698E-04  9.49921208E-05  7.92215497E-05  9.03430037E-05  9.79493427E-05  1.73627576E-04  2.27337499E-04  2.43064181E-04
    1.66128853E-04  1.17520116E-04  9.69834044E-05  8.26081190E-05  8.99846484E-05  1.28258638E-04  9.91057198E-05  6.17218133E-05  5.03153538E-05  5.55355137E-05  7.90517929E-05  1.41773219E-04  2.84356568E-04  6.54365597E-04  8.35287964E-04  7.17045153E-04  5.89581865E-04  6.57449403E-04  7.73371217E-04  7.99882015E-04
    8.03483897E-04       0.00100406  8.11276077E-04  6.27764808E-04  4.42722486E-04  6.27269987E-04  8.12524193E-04  6.25967269E-04  5.76254684E-04  7.64584855E-04       0.00103563       0.00123946  8.40174970E-04  5.49933560E-04  4.32231957E-04  3.25959994E-04  2.27651050E-04  1.68147787E-04  1.43775783E-04  1.03029800E-04
    1.50867173E-04  2.07882303E-04  2.06378289E-04  2.08082797E-04  1.55955170E-04  1.50773936E-04  1.36308317E-04  1.01657445E-04  1.18635250E-04  1.87433867E-04  2.34339680E-04  1.98819939E-04  2.32426147E-04  4.73159388E-04  8.75409129E-04       0.00106844       0.00146177       0.00267676       0.00314532       0.00231029
         0.00127894  8.97085840E-04  5.61841974E-05  6.17569613E-05  5.31651503E-05  5.62182419E-05  4.93690212E-05  3.67748567E-05  2.85566852E-05  2.93680256E-05  5.12575298E-05  7.66832282E-05  1.17559967E-04  1.42434838E-04  1.30709691E-04  1.36461573E-04  1.75601559E-04  2.03679137E-04  1.63347869E-04  1.22160802E-04
    1.16345349E-04  1.27775909E-04  1.66237558E-04  1.69180138E-04  1.08676216E-04  6.50196108E-05  5.50089094E-05  5.21490947E-05  8.82829224E-05  1.19048058E-04  1.49597726E-04  1.31376412E-04  1.49361197E-04  1.17922247E-04  1.49632890E-04  2.77125076E-04  3.71269085E-04  4.54058235E-04  4.66716119E-04  3.22024536E-04
    3.47675381E-04  2.84984602E-04  2.34200842E-04  2.20959825E-04  1.83554180E-04  1.46412611E-04  1.01798803E-04  8.15364013E-05  9.33898293E-05  1.52541872E-04  3.15461942E-04  3.65466162E-04  3.22769434E-04  3.68170895E-04  4.79803196E-04  4.27730998E-04  5.24435675E-04  6.80203702E-04  7.77495596E-04  8.72957479E-04
    6.67726665E-04  6.23292189E-04  4.89101598E-04  4.87654826E-04  6.84337603E-04  8.07433858E-04  9.17618057E-04  9.05618309E-04  9.10501658E-04  9.61954618E-04  6.13960399E-04  4.90782231E-04  3.83257288E-04  3.49605619E-04  2.08680725E-04  1.51192957E-04  1.52440870E-04  1.28066290E-04  1.24454269E-04  1.91247716E-04
    2.53634654E-04  3.29056172E-04  3.39941244E-04  2.11837843E-04  1.42036632E-04  1.03605708E-04  8.57368991E-05  1.64446417E-04  2.12194075E-04  1.95754492E-04  1.78989045E-04  1.89613163E-04  2.59081484E-04  5.05443135E-04  7.22589935E-04       0.00162153       0.00179805       0.00138818  9.12195299E-04  7.06227369E-04
    4.14191387E-04  2.61502504E-04  4.18154468E-05  4.29300276E-05  5.25821310E-05  4.34339909E-05  2.61039699E-05  2.32046915E-05  3.71203250E-05  6.02127897E-05  7.85139167E-05  1.41866779E-04  1.63604655E-04  1.30659909E-04  1.36468649E-04  2.09451520E-04  2.42845123E-04  2.26239309E-04  1.98766171E-04  1.71567990E-04
    1.95256806E-04  2.14006302E-04  1.56509513E-04  9.68463422E-05  7.77017538E-05  1.00998485E-04  1.48199536E-04  1.55465631E-04  1.41088449E-04  1.82771999E-04  3.09586578E-04  3.62132343E-04  4.57769466E-04  5.27407923E-04  6.50239624E-04  6.23806821E-04  6.61287938E-04  7.08331793E-04  7.24340363E-04  5.75853603E-04