# File generated by Flopy version 3.7.0 on 07/26/2024 at 11:56:54.
BEGIN options
  PRINT_OPTION  summary
  COMPLEXITY  complex
END options

BEGIN linear
  LINEAR_ACCELERATION  bicgstab
END linear

