# File generated by Flopy version 3.6.0 on 05/08/2024 at 11:18:37.
BEGIN griddata
  strt
    INTERNAL  FACTOR  1.0
        15.00000000      15.00000000      15.00000000      15.00000000      15.00000000      15.00000000      15.00000000      15.00000000      15.00000000      15.00000000      15.00000000      15.00000000      15.00000000      15.00000000      15.00000000      15.00000000      15.00000000      15.00000000      15.00000000      15.00000000
        15.00000000      15.00000000      15.00000000      15.00000000      15.00000000      15.00000000      15.00000000      15.00000000      15.00000000      15.00000000      15.00000000      15.00000000      15.00000000      15.00000000      15.00000000      15.00000000      15.00000000      15.00000000      15.00000000      15.00000000
        15.00000000      15.00000000      15.00000000      15.00000000      15.00000000      15.00000000      15.00000000      15.00000000      15.00000000      15.00000000      15.00000000      15.00000000      15.00000000      15.00000000      15.00000000      15.00000000      15.00000000      15.00000000      15.00000000      15.00000000
        15.00000000      15.00000000      15.00000000      15.00000000      15.00000000      15.00000000      15.00000000      15.00000000      15.00000000      15.00000000      15.00000000      15.00000000      15.00000000      15.00000000      15.00000000      15.00000000      15.00000000      15.00000000      15.00000000      15.00000000
        15.00000000      15.00000000      15.00000000      15.00000000      15.00000000      15.00000000      15.00000000      15.00000000      15.00000000      15.00000000      15.00000000      15.00000000      15.00000000      15.00000000      15.00000000      15.00000000      15.00000000      15.00000000      15.00000000      15.00000000
        15.00520197      15.00912110      15.01579077      15.01171718      15.00834540      15.01320064      15.01079541      15.01178115      15.01472078      15.02198130      15.02494296      15.02881307      15.03253995      15.03063275      15.01743920      15.00590260      15.00504363      15.00470664      15.00402215      15.00504830
        15.00572088      15.00925345      15.01179219      15.00815902      15.01140449      15.01513578      15.02056688      15.02141161      15.02785918      15.02995233      15.02884625      15.03071845      15.03137895      15.03771422      15.04863031      15.07869140      15.04454787      15.00493943      15.00487571      15.00582893
        15.01265397      15.01730097      15.01160930      15.00914896      15.00714796      15.01145820      15.00882644      15.00522825      15.00565051      15.00607083      15.00981861      15.00998704      15.00603446      15.00711328      15.00911907      15.01235774      15.01907261      15.03356504      15.02651804      15.03859255
        15.03342402      15.02934603      15.03500363      15.03857235      15.05534128      15.05971396      15.06195237      15.06257023      15.04876545      15.04594535      15.01854438      15.02041288      15.02415113      15.02724745      15.03992857      15.04642108      15.05556507      15.07412147      15.07700317      15.06337927
        15.04957982      15.04970732      15.04890682      15.03967564      15.02651822      15.01430851      15.01269877      15.01612924      15.01646252      15.01534339      15.01707817      15.01984210      15.01209539      15.00951270      15.00958483      15.00814329      15.00747627      15.00705194      15.00789257      15.00600418
        15.01475870      15.01642518      15.02266733      15.02506453      15.01812438      15.02292058      15.02270268      15.02265839      15.02522386      15.03179746      15.03807944      15.04476773      15.05197568      15.05357713      15.04142482      15.01758534      15.01367135      15.01215817      15.01010586      15.01202289
        15.01410223      15.01832420      15.02260864      15.01920522      15.01706173      15.02548070      15.03081010      15.04610335      15.04525210      15.05079615      15.05677681      15.06136218      15.06757251      15.07397276      15.08554687      15.11185419      15.09089864      15.01772972      15.01138382      15.01251309
        15.02262802      15.02879210      15.02653907      15.01871728      15.01513261      15.01772299      15.01669806      15.01035485      15.01083941      15.01324522      15.01806947      15.01972909      15.01400458      15.01141990      15.01449469      15.01838636      15.02889915      15.04976363      15.05776219      15.07072711
        15.06702531      15.06382578      15.06930878      15.09010043      15.10640401      15.11433222      15.12339526      15.12700124      15.10583837      15.11031673      15.06212453      15.02991185      15.03460017      15.04268162      15.05534078      15.07537292      15.08904716      15.09796219      15.10249655      15.10008985
        15.08283533      15.07725762      15.07217326      15.06135202      15.05247743      15.03868253      15.02737158      15.02109313      15.02390465      15.02382128      15.02761587      15.03172713      15.02632652      15.01514926      15.01757112      15.01624234      15.01511343      15.01509116      15.01710811      15.01736920
        15.02445454      15.02647136      15.03217460      15.03746984      15.03213994      15.02695572      15.03393264      15.03293368      15.03576072      15.04220057      15.04816905      15.05410584      15.06163078      15.06678518      15.06483684      15.04695281      15.02623712      15.02228260      15.02103848      15.02196040
        15.02542648      15.02953364      15.03881557      15.03962683      15.03315691      15.03696028      15.04212313      15.05837667      15.06967535      15.07006168      15.07915498      15.08520647      15.09954470      15.10998192      15.11733174      15.13521699      15.11566109      15.04698100      15.02770198      15.02888260
        15.04127921      15.05058056      15.04527921      15.03290123      15.02454063      15.02177497      15.02384328      15.01950636      15.01659259      15.02169044      15.02738860      15.02963111      15.02529338      15.01929695      15.02132975      15.02537000      15.03986486      15.05749234      15.08625883      15.09921396
        15.11997242      15.10916117      15.12175468      15.14520244      15.15446322      15.16439631      15.16973164      15.17123493      15.16178181      15.16825716      15.12687107      15.04149074      15.04567587      15.05338779      15.07126455      15.09723382      15.10602665      15.11066823      15.11572890      15.11839630
        15.10719676      15.09192539      15.08632215      15.07870164      15.06768032      15.06059677      15.04659257      15.02843087      15.02665704      15.02998374      15.03493929      15.03861226      15.03955771      15.02782629      15.02613932      15.02751291      15.02368785      15.02258967      15.02512659      15.02837331
        15.03452215      15.03863008      15.04334501      15.04808252      15.04931462      15.04203221      15.04744380      15.04820372      15.04722382      15.05143062      15.05626310      15.06244940      15.06846722      15.07309485      15.07481642      15.07149777      15.05014207      15.04081291      15.03560433      15.03317572
        15.03383576      15.03620281      15.05059457      15.05523595      15.04896387      15.04585094      15.05251167      15.06177109      15.08488398      15.08887566      15.09719442      15.11011671      15.12629493      15.13554216      15.14198974      15.15434940      15.14227603      15.08720156      15.06700765      15.06626333
        15.07791059      15.09126650      15.07530513      15.05018833      15.03332082      15.02683523      15.02860751      15.02814416      15.02583354      15.03122911      15.03550954      15.03704654      15.03588478      15.03162880      15.02981906      15.03570171      15.04782880      15.06667506      15.11167565      15.14195064
        15.17800739      15.17878976      15.18586168      15.19587985      15.19730975      15.20188257      15.19815175      15.20107228      15.20117402      15.20095383      15.17358836      15.07828863      15.06818335      15.07003922      15.09414952      15.11757930      15.12306490      15.12104999      15.12343150      15.12651084
        15.12605854      15.11198043      15.09689397      15.09229064      15.08346373      15.07460537      15.06549924      15.04559156      15.03133380      15.03717377      15.04591036      15.05004523      15.05762144      15.05136621      15.04129475      15.04865721      15.03955628      15.03105146      15.03359001      15.03611418
        15.04742773      15.04898835      15.05252768      15.05860777      15.06453532      15.06525878      15.06106257      15.06361539      15.06100562      15.06134106      15.06486804      15.06969516      15.07328947      15.07798428      15.08260449      15.08602338      15.06965455      15.05533830      15.04667240      15.04033838
        15.03714012      15.03837670      15.04668533      15.06088541      15.05692333      15.05500724      15.05816786      15.06313688      15.08247451      15.10468823      15.11713521      15.13112140      15.14289500      15.14847716      15.15545644      15.16512959      15.18678624      15.12778388      15.11060137      15.11239078
        15.11979204      15.12827248      15.11082631      15.06828219      15.04615803      15.03135249      15.03124623      15.03273192      15.03548411      15.03972801      15.04142981      15.04263972      15.04339139      15.04412175      15.04308684      15.04811555      15.05705954      15.07789839      15.11881990      15.17571852
        15.22065172      15.23987760      15.24033639      15.24457947      15.23728516      15.22195230      15.22126394      15.22086719      15.22333006      15.21951658      15.19962667      15.14538873      15.11527646      15.10963495      15.12437516      15.13936844      15.14310249      15.13430817      15.13330621      15.13666136
        15.13944005      15.13611028      15.11615411      15.10001102      15.10113097      15.09254861      15.08432169      15.07385581      15.05325782      15.05039068      15.06147825      15.07926991      15.08424530      15.08644529      15.07782837      15.08509449      15.07003267      15.04749722      15.04364965      15.04326226
        15.06959767      15.05965309      15.06262345      15.06858311      15.07489092      15.08593143      15.08366138      15.08179169      15.07627515      15.07484110      15.07593056      15.07735164      15.08013401      15.08317367      15.08924868      15.09226707      15.07785551      15.06016411      15.05106398      15.04364447
        15.03734147      15.03638495      15.04124218      15.05937374      15.05972760      15.05820957      15.05822313      15.06071090      15.07578189      15.10672169      15.12844827      15.14199571      15.15138377      15.15536514      15.15973947      15.16708650      15.19945444      15.18843975      15.13797920      15.14517267
        15.14790762      15.14812301      15.13231827      15.09650141      15.06884399      15.03936298      15.03452386      15.03702939      15.04349019      15.04702612      15.04638828      15.04744359      15.04930460      15.05284952      15.05418798      15.05710547      15.06159547      15.07712106      15.12547394      15.20275683
        15.25316928      15.27445673      15.27886998      15.27718837      15.26752240      15.23634319      15.23499425      15.23408949      15.23343479      15.23215928      15.21932723      15.19444018      15.17453875      15.16020562      15.15162868      15.15868747      15.16269291      15.15270601      15.14538563      15.14945365
        15.15588861      15.16636821      15.16084409      15.12304376      15.12237725      15.11948961      15.11707404      15.11411149      15.10596883      15.08320453      15.09035529      15.11974306      15.13150572      15.12763169      15.11926972      15.12067518      15.11044639      15.08139077      15.06526955      15.06477980
        15.12309621      15.08571031      15.07401313      15.07746600      15.08397364      15.09756648      15.12056139      15.11343971      15.09248430      15.09127146      15.09020512      15.08880539      15.08960372      15.09005997      15.09345740      15.09345375      15.07979160      15.06260428      15.05124250      15.04201779
        15.03637355      15.03452692      15.03567144      15.04329662      15.05595744      15.05527010      15.05470498      15.05452072      15.06540685      15.09770031      15.12971769      15.15322993      15.15635633      15.15959250      15.16252153      15.16546042      15.19062051      15.20905183      15.16641097      15.16823607
        15.16589828      15.16360312      15.14610662      15.12145800      15.10286418      15.06373011      15.04061752      15.04514086      15.05468366      15.05692785      15.05348415      15.05401745      15.05538909      15.05889887      15.06074557      15.06263181      15.06449368      15.07588616      15.14010420      15.21471390
        15.27147376      15.29156174      15.29960833      15.29668875      15.29092712      15.25714855      15.24356572      15.24602353      15.24507770      15.24447788      15.23740881      15.22478486      15.21974366      15.20654671      15.18446047      15.17541060      15.17921080      15.17439426      15.16101870      15.16344370
        15.17184382      15.18901717      15.20956299      15.17555421      15.14815917      15.15528256      15.16703277      15.16128442      15.17409836      15.14238152      15.13723633      15.15602847      15.17374572      15.16109550      15.15058124      15.14684516      15.14686741      15.12902698      15.10402048      15.10054881
        15.20262902      15.15845848      15.09569783      15.09411321      15.09958537      15.11544489      15.15053202      15.14513552      15.11255390      15.10904846      15.10667913      15.10661482      15.09985580      15.09691695      15.09645828      15.09374030      15.08176084      15.06435007      15.04790116      15.03382427
        15.03305248      15.03205068      15.02979975      15.03088730      15.04538202      15.05035673      15.04954933      15.04904855      15.05470913      15.08428005      15.12288214      15.16440520      15.16563339      15.16267435      15.16449536      15.16569143      15.17591934      15.22463187      15.20547704      15.18305868
        15.18213520      15.17849011      15.16089903      15.13621928      15.12849613      15.10082118      15.06201878      15.05528948      15.07807640      15.07912212      15.07437417      15.06538536      15.06457803      15.06482036      15.06580576      15.06572798      15.06649936      15.07171669      15.12592688      15.20026525
        15.27104832      15.30057268      15.30709256      15.30841182      15.31041645      15.29103190      15.25740040      15.25903823      15.25951763      15.25952750      15.25410108      15.24589019      15.24595280      15.23912872      15.21441778      15.19252603      15.19398387      15.19508985      15.18350512      15.17486154
        15.18509837      15.19889193      15.22738349      15.22371456      15.20035891      15.20547813      15.21794764      15.21267510      15.21644332      15.20465417      15.18156172      15.17820709      15.19610679      15.19013041      15.17900583      15.17370275      15.17584598      15.17184852      15.15080256      15.14001506
        15.27029657      15.27754932      15.19630152      15.13070575      15.14555376      15.15835429      15.18976770      15.17894801      15.13410292      15.12435912      15.12409162      15.12826527      15.11477838      15.10311244      15.09936586      15.09552955      15.08222067      15.06261195      15.03783003      15.01548330
        15.02084815      15.02692258      15.02553846      15.02490666      15.03496478      15.04543205      15.04606167      15.04636210      15.04695112      15.06304235      15.09618773      15.16824245      15.18151048      15.16586400      15.16577436      15.16581280      15.16639476      15.22658835      15.24106022      15.19414497
        15.19516168      15.18962818      15.17562040      15.15475274      15.14519529      15.13622253      15.10224337      15.06888605      15.10838567      15.11376352      15.11002972      15.08926743      15.08588336      15.07588886      15.07172198      15.06956527      15.06905040      15.06953498      15.08631992      15.12315977
        15.21781612      15.30004916      15.31063360      15.31306103      15.31986601      15.32464013      15.28405687      15.26871107      15.27051934      15.27138453      15.26758874      15.25912390      15.25786635      15.25802494      15.23880015      15.21052491      15.20424055      15.20797468      15.20479050      15.19203809
        15.19954708      15.21514837      15.23357456      15.24732512      15.24438610      15.24641592      15.24562445      15.24570424      15.23725648      15.24555871      15.22938380      15.21003057      15.21662814      15.21236696      15.20309934      15.19799911      15.20020728      15.20267903      15.19613424      15.18412189
        15.36194104      15.39293046      15.41560740      15.23490213      15.24219115      15.23755964      15.26045223      15.23345609      15.16074285      15.13839397      15.14126886      15.14564717      15.13412398      15.11057033      15.10212462      15.09558388      15.08053041      15.05841815      15.01804664      14.99632448
        14.99494759      14.97987039      14.97882803      14.99826704      15.01477402      15.01962270      15.01767243      15.02209035      15.03751641      15.04353475      15.04342747      15.04292221      15.04970256      15.07410746      15.16007450      15.19931529      15.17149234      15.16656309      15.16560502      15.16551047
        15.18500825      15.22661531      15.21088628      15.20353604      15.20052982      15.18539604      15.17279644      15.16548162      15.16270281      15.15677614      15.12853663      15.15139459      15.15560264      15.14700849      15.12926667      15.12215656      15.09668240      15.08355149      15.07661171      15.07268722
        15.06873945      15.03884517      14.95596787      14.90213098      14.67668474      14.51708748      15.01779523      15.28177654      15.31271389      15.31520357      15.32629674      15.34009421      15.32626373      15.27856772      15.27841323      15.27774724      15.27463918      15.26689710      15.26399043      15.26482870
        15.25566470      15.22813462      15.21249339      15.21938505      15.22462966      15.21728798      15.21452069      15.23038156      15.24139924      15.25458541      15.26152772      15.26409922      15.26012685      15.26078584      15.25570690      15.25870302      15.25725006      15.24485164      15.23627142      15.23178965
        15.22063875      15.21882683      15.22426368      15.22729654      15.23800430      15.23827700      15.50099021      15.52916617      15.60730873      15.56826774      15.35660068      15.34246281      15.34014796      15.30958533      15.21116258      15.15653105      15.15411565      15.15543475      15.15375457      15.12873808
        15.10766708      15.09256760      15.07528346      15.05185616      15.01129107      14.98237042      15.00940464      14.97836861      14.95997674      14.94879219      14.94046668      14.92190137      14.90816999      14.90525474      14.88133973      14.86508909      14.86384255      14.80222806      14.95024439      14.96039402
        14.91451366      14.92867929      14.88314462      14.89916326      14.86453381      14.89259692      14.91784926      14.94462941      14.93818489      14.90912193      14.88059042      14.86332538      14.89575605      14.89030195      14.92176597      14.91340232      14.94847066      14.93696953      14.88034054      14.89736650
        14.89640568      14.90515928      14.91850015      14.91661024      14.92654755      14.94182278      14.93813850      14.94929270      14.97224776      14.98735846      14.96898706      14.98425896      14.99898231      15.00898750      15.01108459      15.01018461      15.02535122      15.03909602      15.04052546      15.04046393
        15.04233391      15.05461923      15.10234738      15.17809065      15.17747196      15.16654460      15.16528672      15.16499759      15.16939936      15.19615246      15.21571850      15.20944472      15.21400704      15.20150714      15.18421302      15.18406939      15.18682869      15.19202182      15.17830672      15.16637672
        15.17398496      15.16738905      15.16065419      15.15665510      15.13246687      15.10807715      15.09367628      15.08096383      15.06641612      15.03845815      15.00485751      15.04617760      15.02228837      14.54375596      13.80875483      14.34942323      13.36799830      12.79683582      12.99000477      12.07083217
        11.48112930      11.56350190       9.46218665      13.70570317      14.06681460      12.91128517      13.33146210      12.03300215      12.53512564      11.49705817      12.38826992      13.13206542      13.88495998      14.46898533      13.26861760      12.20629563      11.58020009      12.76676787      12.54753546      13.78881798
        13.43410476      14.78904893      14.41944357      12.10456674      12.63652047      12.70431172      12.95851402      13.32347369      13.45742739      13.71850507      14.06828880      14.35120197      14.52646966      14.55939279      14.94936875      14.67422985      14.98142883      15.23660649      15.31443153      15.31862504
        15.33143108      15.34705328      15.35011866      15.29785598      15.28301187      15.28137143      15.27906907      15.27225895      15.26793013      15.26866532      15.26758426      15.25070107      15.22883819      15.23200709      15.23826555      15.23985312      15.23642295      15.24474475      15.24987347      15.25822772
        15.26467073      15.26792879      15.26637082      15.26546994      15.26429580      15.26286930      15.26492674      15.26412175      15.25830449      15.25719097      15.24564195      15.24346881      15.24568169      15.25581659      15.26939023      15.27978549      15.64488623      15.65976989      15.66872002      15.66420533
        15.46897657      15.42045758      15.38324317      15.36950338      15.28487131      15.18513600      15.16407566      15.16301251      15.16523285      15.14947525      15.12218618      15.09088579      15.06522969      15.05057902      15.01244527      14.96897989      14.96716089      14.98647344      14.98217318      14.98202073
        14.98883303      14.99417031      15.00023360      14.99884072      15.00984536      15.02788618      15.03713752      15.03749211      15.03688404      15.04297999      15.06586104      15.12606921      15.16229210      15.16472566      15.16458160      15.16449107      15.16614236      15.18221167      15.20767131      15.21841742
        15.22372268      15.21944378      15.19953629      15.19699836      15.20370304      15.20571869      15.20473000      15.18511700      15.18699696      15.17928767      15.17256928      15.16957293      15.16014340      15.14043731      15.12394593      15.10066297      15.08021342      15.06050846      14.95906308      14.88955587
        15.05352868      15.03607981      15.04893214      15.25407340      15.31876170      15.32509038      15.34026915      15.35557383      15.36752511      15.34044556      15.28817860      15.28580169      15.28326938      15.27782541      15.27183422      15.27115571      15.27148245      15.26760224      15.25104946      15.24196735
        15.24730648      15.25099080      15.25096570      15.25361452      15.25709962      15.26210140      15.26652334      15.26906680      15.26866891      15.26781837      15.26817592      15.26731527      15.26813008      15.27017262      15.27298858      15.27610444      15.27216513      15.26936520      15.26907474      15.28031526
        15.28598748      15.29841522      15.76711023      15.75569149      15.70146337      15.65578717      15.56024251      15.44836732      15.39927972      15.38790600      15.33828127      15.23006543      15.17858892      15.16992419      15.16995778      15.16331050      15.14044865      15.09655492      15.05605348      15.04291650
        15.02040521      14.99305102      14.98254502      14.98169409      14.98045300      14.98812928      14.99241817      14.99712032      15.01233593      15.02625454      15.03284478      15.03320296      15.03562233      15.05073515      15.08842567      15.13352440      15.15837254      15.16347383      15.16409281      15.16387660
        15.17891026      15.19837020      15.22700023      15.22782993      15.23185932      15.22281946      15.21232271      15.21616030      15.22011780      15.22452577      15.21572610      15.19873791      15.19157838      15.17992014      15.17592714      15.17333464      15.16556430      15.15894543      15.13765170      15.10935872
        15.09921676      15.11768439      15.17578179      15.27880551      15.32552995      15.33961384      15.35455982      15.36821403      15.37732078      15.35570897      15.30174461      15.29080269      15.28738988      15.28336160      15.27611646      15.27358328      15.27442328      15.27345120      15.26685028      15.25369546
        15.25420466      15.25604125      15.25711335      15.25839960      15.26128732      15.26452436      15.26817783      15.26994549      15.26972096      15.26912980      15.26903203      15.26927410      15.26993623      15.27442321      15.27961248      15.28179927      15.28332986      15.28464144      15.28967503      15.29877417
        15.30233167      15.31155207      15.82246099      15.82338747      15.70831264      15.61831623      15.53343916      15.44848299      15.40495301      15.38770420      15.36147355      15.28362208      15.20594363      15.18262471      15.17520121      15.17454376      15.14717795      15.09039112      15.04796727      15.03140997
        15.01541531      14.98931062      14.97442702      14.97186057      14.97154555      14.97546678      14.98402712      14.98596889      14.99872767      15.01195905      15.02314905      15.02829344      15.02933579      15.04117721      15.07473162      15.11590526      15.14893228      15.16175820      15.16307664      15.16325671
        15.17138350      15.19002100      15.22820166      15.23521798      15.23791159      15.23715066      15.22957746      15.22985861      15.23479703      15.23853398      15.25052641      15.21253916      15.20659106      15.19455560      15.18528908      15.18273474      15.18260851      15.18190208      15.18029701      15.15542737
        15.14579018      15.16083443      15.21277855      15.27936130      15.33286148      15.36233851      15.37357977      15.39069415      15.38897832      15.37000106      15.32402757      15.29442747      15.29154414      15.28936366      15.28243209      15.27744906      15.27705767      15.27668750      15.27565069      15.26561602
        15.25817944      15.25893501      15.26049642      15.26186222      15.26447958      15.26682153      15.26953043      15.27048061      15.27037921      15.26997926      15.26976679      15.26993535      15.27199788      15.27733828      15.28229698      15.28464792      15.28722609      15.29058058      15.29739898      15.30483190
        15.31532909      15.32672347      15.81673132      15.83257856      15.72818296      15.56930761      15.47750001      15.44762258      15.40918770      15.38446043      15.36384177      15.31901285      15.25092641      15.20315216      15.18435841      15.18507101      15.15966085      15.09125039      15.03792572      15.01983077
        14.99708284      14.96980385      14.96025214      14.96068151      14.96420710      14.96321420      14.97056375      14.97740623      14.98681994      14.99853243      15.00863436      15.01816628      15.02288543      15.03118014      15.06050696      15.09899216      15.13662846      15.15786920      15.16170900      15.16273804
        15.16623698      15.18295803      15.21974456      15.23918479      15.24064079      15.24199050      15.24182044      15.24352349      15.24493392      15.25159820      15.27568426      15.24218500      15.22021327      15.21786021      15.20306751      15.19896756      15.19861496      15.19953240      15.20743926      15.20753713
        15.19780797      15.20513776      15.24364744      15.29722932      15.35716684      15.39044656      15.40968053      15.43008448      15.42245937      15.36945879      15.32542227      15.29866408      15.29468313      15.29318088      15.28782467      15.28198689      15.28040800      15.28072746      15.27964961      15.27467382
        15.26381557      15.26292312      15.26377216      15.26562853      15.26797868      15.26970641      15.27091225      15.27103767      15.27094502      15.27069442      15.27061183      15.27057271      15.27364765      15.28048758      15.28534641      15.28752836      15.28989053      15.29408456      15.30103946      15.30547584
        15.31873477      15.33445888      15.80090003      15.80850166      15.77158477      15.57160283      15.45871090      15.44446907      15.41525460      15.38240994      15.36347007      15.33376440      15.28752675      15.23281053      15.20162940      15.19693611      15.18298613      15.11258299      15.02768890      15.00229913
        14.97542968      14.95326290      14.94642352      14.94682955      14.95378957      14.95545620      14.95748387      14.96479776      14.97378837      14.98393771      14.99219396      15.00119206      15.01170244      15.02115720      15.04741684      15.08151481      15.12371638      15.15322542      15.15968032      15.16165305