# File generated by Flopy version 3.7.0 on 06/20/2024 at 16:46:20.
BEGIN options
END options

BEGIN griddata
  icelltype
    CONSTANT  0
  k
    INTERNAL  FACTOR  1.0
    6.46476071E-04  5.95477130E-04  5.40381982E-04  4.45130121E-04  3.80534611E-04  3.42102246E-04  2.85955539E-04  2.75865184E-04  2.44570716E-04  2.59044823E-04  2.88363161E-04  3.10720778E-04  3.38544666E-04  3.79326689E-04  4.23315864E-04  4.55983945E-04  4.49232827E-04  4.22521931E-04  4.14708075E-04  4.13863416E-04
    4.63569302E-04  4.53974722E-04  4.40689956E-04  4.19619425E-04  4.44570331E-04  4.87540524E-04  5.25841068E-04  5.41748914E-04  5.22859996E-04  5.92516224E-04  6.45293309E-04  7.65414597E-04  7.91731667E-04  7.86678911E-04  7.96323036E-04  7.95408224E-04  7.18535285E-04  6.47733612E-04  5.69344004E-04  5.69690558E-04
    4.12549703E-04  2.92522280E-04  2.56310525E-04  2.08656201E-04  1.84447127E-04  1.44352872E-04  1.29903869E-04  1.13691789E-04  1.05941072E-04  8.06346266E-05  7.19155140E-05  7.52171163E-05  6.68273563E-05  6.17579526E-05  5.12861388E-05  4.99274892E-05  5.35113479E-05  5.20894585E-05  5.55717931E-05  5.51525444E-05
    5.34327787E-05  5.46894848E-05  6.19883317E-05  6.85516894E-05  9.14904363E-05  1.16754410E-04  1.49444287E-04  1.75549581E-04  1.89025891E-04  2.11408353E-04  2.33686683E-04  2.51689525E-04  2.84175590E-04  2.36717184E-04  2.19899385E-04  1.87030696E-04  1.52997109E-04  1.23961837E-04  1.07165689E-04  8.55180565E-05
    7.93469927E-05  7.69683723E-05  7.31496285E-05  6.26739588E-05  5.38210559E-05  4.79092775E-05  4.74597448E-05  4.54678499E-05  3.86330484E-05  3.37753528E-05  3.01852967E-05  2.35170952E-05  1.98472448E-05  1.72278948E-05  1.63508326E-05  1.74900191E-05  1.69941057E-05  1.80778384E-05  2.02304353E-05  2.34614300E-05
    6.39339568E-04  6.27002114E-04  5.66964661E-04  4.15466489E-04  3.62431302E-04  3.22409049E-04  2.75427654E-04  2.77461365E-04  2.72026597E-04  2.98513720E-04  3.52765127E-04  3.87380153E-04  3.80509882E-04  3.84701957E-04  4.01659145E-04  4.14146398E-04  4.11019513E-04  4.03362504E-04  3.98365521E-04  3.67786067E-04
    3.88524175E-04  3.76928717E-04  3.72947901E-04  3.31244550E-04  3.76769416E-04  4.68044128E-04  4.66244569E-04  4.59374039E-04  4.93022153E-04  5.96969148E-04  6.80749055E-04  7.51003735E-04  7.34829152E-04  7.62558245E-04  8.37449245E-04  7.88335083E-04  6.60090069E-04  5.49005466E-04  4.43779231E-04  4.32743360E-04
    2.91306547E-04  2.03929213E-04  1.65739892E-04  1.26995462E-04  1.12759602E-04  9.15443451E-05  9.17710044E-05  8.08926632E-05  7.00094163E-05  5.07838169E-05  4.20058069E-05  4.39771032E-05  3.78944243E-05  3.61952272E-05  3.70911725E-05  4.53194110E-05  5.08602186E-05  5.46363860E-05  5.84701625E-05  6.38332958E-05
    6.23522500E-05  7.12066503E-05  8.38910060E-05  9.52450595E-05  1.22595815E-04  1.52222444E-04  1.80731541E-04  1.83362998E-04  1.91993550E-04  2.35011919E-04  2.38815869E-04  2.14176476E-04  2.01275954E-04  1.50089240E-04  1.26386687E-04  1.05436403E-04  9.39578126E-05  7.92131190E-05  6.91810055E-05  5.44750606E-05
    5.17743885E-05  6.04023961E-05  6.06571335E-05  5.62663617E-05  5.18776054E-05  4.59151827E-05  4.65798079E-05  4.19048370E-05  3.14641434E-05  2.65531688E-05  2.34690973E-05  1.82310863E-05  1.58158302E-05  1.58599174E-05  1.40021046E-05  1.47870404E-05  1.48167486E-05  1.70162162E-05  2.13023119E-05  2.64554337E-05
    5.94132938E-04  5.11456255E-04  4.46420595E-04  3.74381436E-04  3.50438996E-04  3.38738013E-04  2.99826036E-04  3.18717681E-04  3.27911617E-04  3.76955867E-04  4.43825837E-04  4.34791495E-04  3.82477373E-04  3.70028380E-04  3.74982777E-04  3.66093469E-04  3.50209931E-04  3.43604505E-04  3.37803530E-04  3.44281250E-04
    3.22636257E-04  3.10021279E-04  3.12748881E-04  3.22197396E-04  3.71363823E-04  3.96514550E-04  3.86860414E-04  3.74728886E-04  4.10248421E-04  5.50660277E-04  6.33584399E-04  6.89059836E-04  7.17109690E-04  6.83023424E-04  6.32028052E-04  5.25101313E-04  4.22737460E-04  3.75179577E-04  2.93405908E-04  2.52762086E-04
    1.67136107E-04  1.17251170E-04  1.00681747E-04  8.18600085E-05  7.25620396E-05  6.04226649E-05  5.84425431E-05  5.05076536E-05  4.24481370E-05  3.35342378E-05  3.04749640E-05  3.63472710E-05  3.69487894E-05  3.84612573E-05  4.42747949E-05  5.51136825E-05  6.48023758E-05  7.37422789E-05  7.87539097E-05  8.15224976E-05
    8.32502147E-05  8.81110324E-05  9.77624018E-05  1.01789802E-04  1.25190302E-04  1.41126570E-04  1.51403819E-04  1.65014572E-04  1.68895405E-04  1.78286142E-04  1.57634625E-04  1.34894563E-04  1.24038001E-04  9.68010977E-05  8.58413972E-05  7.87121989E-05  7.48123448E-05  6.59901927E-05  5.57138042E-05  5.01377853E-05
    5.24416861E-05  5.97551419E-05  6.49960999E-05  6.02706109E-05  5.17173624E-05  4.47044096E-05  4.19724697E-05  3.53821009E-05  2.78527980E-05  2.42262402E-05  2.07598873E-05  1.78976593E-05  1.69794355E-05  1.54840211E-05  1.31194921E-05  1.41008012E-05  1.62155435E-05  1.96948926E-05  2.49616842E-05  3.28994542E-05
    4.59562772E-04  4.33350064E-04  4.14320896E-04  3.60320259E-04  3.51126517E-04  3.50221722E-04  3.19508413E-04  3.43858641E-04  3.56656461E-04  3.90679010E-04  3.96286567E-04  3.54119017E-04  3.09861234E-04  2.87977495E-04  2.87578746E-04  2.66252475E-04  2.45674094E-04  2.39329740E-04  2.43138172E-04  2.34165337E-04
    2.29294059E-04  2.30355284E-04  2.53602048E-04  2.62739894E-04  2.97643304E-04  3.16470030E-04  3.23720838E-04  3.56942376E-04  4.13439182E-04  5.38938443E-04  5.57824290E-04  5.74348773E-04  5.51100473E-04  4.83759059E-04  4.24386035E-04  3.38481082E-04  2.88085769E-04  2.51066631E-04  1.78287961E-04  1.47568261E-04
    9.45445779E-05  7.52929383E-05  7.53883181E-05  7.12904051E-05  6.61691938E-05  5.50631326E-05  5.12192927E-05  4.59040854E-05  4.24186921E-05  3.47662526E-05  3.16976797E-05  3.90263023E-05  4.27252389E-05  5.23697504E-05  5.85988614E-05  6.88108354E-05  7.96858597E-05  8.53426897E-05  9.44079119E-05  9.96590804E-05
    8.98733372E-05  8.54822033E-05  8.82662064E-05  9.31885218E-05  1.06373487E-04  1.12151156E-04  1.14966081E-04  1.21160407E-04  1.08765457E-04  1.15400090E-04  1.02516160E-04  9.65868220E-05  1.03598286E-04  9.46768797E-05  9.08837321E-05  7.87923173E-05  7.07706149E-05  6.38938048E-05  5.97377410E-05  5.43682193E-05
    5.98512903E-05  6.89649990E-05  7.06477448E-05  5.63413091E-05  4.75723605E-05  4.04903748E-05  3.82777594E-05  3.36819145E-05  2.66505275E-05  2.29404663E-05  1.99746458E-05  1.73466137E-05  1.66063556E-05  1.64392753E-05  1.47296910E-05  1.62395511E-05  1.98949839E-05  2.41252322E-05  2.94000397E-05  3.69768376E-05
    4.46837638E-04  4.61940498E-04  4.57402928E-04  4.37964670E-04  4.05829614E-04  3.91047279E-04  3.73641678E-04  3.75543008E-04  3.23156774E-04  3.16362004E-04  2.56656235E-04  2.19828444E-04  1.99641659E-04  2.04172844E-04  2.06195930E-04  1.95782225E-04  1.76900335E-04  1.67282655E-04  1.67678255E-04  1.71060192E-04
    1.74789232E-04  1.89085122E-04  2.21378855E-04  2.46296273E-04  2.98584041E-04  3.50498147E-04  4.00856935E-04  4.41360874E-04  5.01466164E-04  5.86150879E-04  5.36032380E-04  5.08480333E-04  4.29605996E-04  3.66274977E-04  3.26773083E-04  2.60286401E-04  2.01454026E-04  1.56658886E-04  1.12040834E-04  1.03445258E-04
    8.48838125E-05  7.84812003E-05  8.37525697E-05  8.09046602E-05  7.62890297E-05  6.08806937E-05  5.10450045E-05  4.33467482E-05  4.16285265E-05  3.60858988E-05  3.86776544E-05  5.08808066E-05  5.59416821E-05  6.63188121E-05  7.16478643E-05  8.18385065E-05  8.92170232E-05  8.43192904E-05  9.07343241E-05  9.51460060E-05
    8.75560992E-05  8.41938186E-05  8.27893044E-05  8.02643058E-05  8.21944257E-05  8.46599704E-05  8.36641240E-05  8.66513594E-05  8.37778993E-05  9.47722413E-05  1.03105063E-04  1.11651806E-04  1.18137776E-04  9.67828226E-05  8.10380827E-05  6.99755083E-05  6.57015465E-05  6.09944560E-05  6.33639174E-05  6.52785178E-05
    6.79059419E-05  7.04822958E-05  6.83628849E-05  5.59632860E-05  4.91768302E-05  4.34413593E-05  4.27029507E-05  3.62797333E-05  2.84920303E-05  2.46342096E-05  2.11009683E-05  1.69314444E-05  1.59354663E-05  1.65472618E-05  1.67411227E-05  2.25005293E-05  2.70633887E-05  2.96224478E-05  3.31618622E-05  3.83964829E-05
    5.32362417E-04  5.66346324E-04  5.58668667E-04  4.72875827E-04  4.12308518E-04  3.94106572E-04  3.35865480E-04  2.90953240E-04  2.14705229E-04  1.77371885E-04  1.61357930E-04  1.50863993E-04  1.45972975E-04  1.55625526E-04  1.56919031E-04  1.37605608E-04  1.30922388E-04  1.35366045E-04  1.27192811E-04  1.20159478E-04
    1.39930064E-04  1.74124442E-04  2.28397509E-04  2.72536576E-04  3.38125136E-04  3.98452051E-04  4.32708220E-04  4.53392617E-04  4.57390837E-04  4.97354648E-04  4.55924066E-04  4.14860368E-04  3.71796234E-04  2.95687495E-04  2.51533342E-04  1.81191549E-04  1.42485394E-04  1.32496458E-04  1.08800548E-04  1.09704882E-04
    9.68156853E-05  9.28955323E-05  9.01024954E-05  7.58688691E-05  6.45195769E-05  4.76160906E-05  4.53838318E-05  4.19934116E-05  4.64009901E-05  4.84086781E-05  5.45792472E-05  7.22781562E-05  7.92752250E-05  8.87117790E-05  9.42355663E-05  1.02240841E-04  1.03416704E-04  9.26618846E-05  8.98554216E-05  8.59118339E-05
    7.32016839E-05  6.64756686E-05  6.58724398E-05  6.78458803E-05  7.76886260E-05  8.60086972E-05  8.30601925E-05  9.17304344E-05  1.00709447E-04  1.19471114E-04  1.23319699E-04  1.11115486E-04  1.09848947E-04  9.23345364E-05  8.41379723E-05  7.84742367E-05  8.04336423E-05  7.94031578E-05  8.02051182E-05  7.51347577E-05
    7.51083381E-05  7.68857595E-05  7.51235479E-05  6.83342878E-05  6.11712204E-05  4.90506972E-05  4.73226612E-05  4.19435475E-05  3.38241908E-05  2.55619115E-05  2.18064995E-05  1.78416273E-05  1.81371828E-05  2.01804929E-05  2.08995342E-05  2.77142714E-05  3.03145614E-05  3.46506123E-05  3.95339405E-05  5.29720296E-05
    5.17352800E-04  5.27834576E-04  4.97647933E-04  4.26465134E-04  3.68568319E-04  3.14772726E-04  2.30640440E-04  1.91438381E-04  1.35111595E-04  1.26976769E-04  1.29115135E-04  1.31654964E-04  1.24661208E-04  1.18099536E-04  1.20289264E-04  1.23179536E-04  1.10000303E-04  9.33835072E-05  8.67849674E-05  9.30995485E-05
    1.14011941E-04  1.54415306E-04  2.23308183E-04  2.77443700E-04  3.06737657E-04  3.24072243E-04  3.43626155E-04  3.79420971E-04  3.90034494E-04  4.22047892E-04  3.58690818E-04  3.32467164E-04  2.84981423E-04  2.35667575E-04  2.16670507E-04  1.83060295E-04  1.60263756E-04  1.50606530E-04  1.26357262E-04  1.32229948E-04
    1.07508381E-04  9.18291190E-05  8.87382698E-05  6.89895911E-05  5.81308191E-05  5.08264884E-05  5.27627928E-05  5.76970008E-05  7.29034943E-05  7.32772704E-05  8.23645762E-05  1.05506043E-04  1.14752608E-04  1.24663477E-04  1.29706570E-04  1.28020538E-04  1.14966123E-04  9.48328954E-05  7.96588510E-05  7.16771674E-05
    6.39656604E-05  6.87711465E-05  7.42068400E-05  8.72388983E-05  9.97580815E-05  1.03051622E-04  1.11801980E-04  1.35651343E-04  1.40300600E-04  1.49668883E-04  1.33750756E-04  1.18884694E-04  1.23060009E-04  1.05573194E-04  9.97225031E-05  9.56607947E-05  9.76163260E-05  9.26975487E-05  8.61616869E-05  8.40104349E-05
    9.22820402E-05  1.02758628E-04  1.12496424E-04  9.28808852E-05  7.48759751E-05  5.64934272E-05  5.16638427E-05  4.17101340E-05  3.32832751E-05  2.74887135E-05  2.44145831E-05  2.11696124E-05  2.08686019E-05  2.16203215E-05  2.27791187E-05  2.85990238E-05  3.25251755E-05  3.95846470E-05  5.24658165E-05  6.03410183E-05
    4.00342860E-04  4.02663953E-04  3.52019828E-04  2.88922542E-04  2.48816198E-04  2.23502622E-04  1.76941103E-04  1.52365186E-04  1.30636206E-04  1.35002520E-04  1.37033826E-04  1.15241511E-04  9.67438503E-05  9.32087192E-05  9.11149070E-05  8.67475515E-05  7.40162336E-05  6.73646882E-05  7.37790633E-05  8.94604794E-05
    1.19018131E-04  1.56680159E-04  1.92339085E-04  2.17994064E-04  2.36632999E-04  2.71966550E-04  3.20618428E-04  3.25001141E-04  3.11099328E-04  3.27318753E-04  2.85250939E-04  2.66155016E-04  2.53019747E-04  2.24885976E-04  2.14171045E-04  1.83086384E-04  1.66134661E-04  1.53488509E-04  1.36989314E-04  1.39749044E-04
    1.17344559E-04  1.09438094E-04  1.05273700E-04  8.84012701E-05  7.83408399E-05  7.58926091E-05  9.06500919E-05  1.05076602E-04  1.17031810E-04  1.10990933E-04  1.26621420E-04  1.52863923E-04  1.54511288E-04  1.66087474E-04  1.55462820E-04  1.42542598E-04  1.21319568E-04  9.97200194E-05  9.26745707E-05  8.90671274E-05
    7.86048118E-05  8.38736222E-05  1.01615287E-04  1.20109748E-04  1.40661563E-04  1.43146879E-04  1.53567658E-04  1.64454902E-04  1.57481441E-04  1.56904965E-04  1.44396868E-04  1.16542346E-04  1.13895360E-04  9.44681032E-05  9.44399909E-05  9.38397023E-05  9.33732283E-05  9.77894805E-05  1.03824051E-04  1.05938806E-04
    1.19583783E-04  1.29204727E-04  1.22173629E-04  1.02646659E-04  8.55808552E-05  6.17546200E-05  5.33079350E-05  4.52135042E-05  3.77594210E-05  3.16812086E-05  2.96358523E-05  2.53208068E-05  2.32066159E-05  2.38397026E-05  2.47566416E-05  3.33938665E-05  4.04683277E-05  5.04799629E-05  5.87738004E-05  6.88908088E-05
    2.57043686E-04  2.62098477E-04  2.59566028E-04  2.19382453E-04  1.83038782E-04  1.61709846E-04  1.40445756E-04  1.40755528E-04  1.21970428E-04  1.15334183E-04  1.04540659E-04  8.51936026E-05  7.03298116E-05  6.87839900E-05  6.83995239E-05  6.70820855E-05  6.58758859E-05  7.08533428E-05  7.89357756E-05  9.75541878E-05
    1.21890691E-04  1.39592999E-04  1.59505305E-04  1.81228552E-04  2.18070575E-04  2.45065430E-04  2.54801275E-04  2.71957341E-04  2.60322466E-04  2.78279312E-04  2.48350358E-04  2.44992833E-04  2.31609631E-04  1.99625230E-04  2.02401866E-04  1.74729709E-04  1.56923291E-04  1.43386347E-04  1.43686540E-04  1.81111697E-04
    1.77684208E-04  1.55490832E-04  1.55084819E-04  1.34883504E-04  1.36121909E-04  1.40581803E-04  1.59057551E-04  1.76174136E-04  1.89514314E-04  1.67183763E-04  1.67102518E-04  1.96893062E-04  1.93168880E-04  1.87090112E-04  1.79122882E-04  1.69805837E-04  1.60860408E-04  1.38003674E-04  1.23818517E-04  1.30084144E-04
    1.24321931E-04  1.32111838E-04  1.53629902E-04  1.76745167E-04  2.04503429E-04  2.02530119E-04  2.00948397E-04  1.89517294E-04  1.65003097E-04  1.54643099E-04  1.34478609E-04  1.09259792E-04  1.06817915E-04  9.88654465E-05  1.06095850E-04  1.09731756E-04  1.32672314E-04  1.57515652E-04  1.67511211E-04  1.61790861E-04
    1.67014225E-04  1.64551555E-04  1.57794353E-04  1.25993992E-04  9.86683445E-05  7.44530027E-05  6.70506013E-05  5.84432634E-05  4.77466126E-05  3.87411083E-05  3.13957253E-05  2.61976081E-05  2.75389957E-05  3.08932044E-05  3.32968817E-05  4.60792773E-05  5.30707094E-05  6.31571797E-05  7.19913622E-05  8.87297405E-05
    1.72554025E-04  1.90892412E-04  1.88111107E-04  1.53054865E-04  1.32994630E-04  1.32436524E-04  1.23637787E-04  1.25862369E-04  9.82494737E-05  8.68756182E-05  7.44597103E-05  5.90007240E-05  5.22612036E-05  5.93277804E-05  6.47417837E-05  6.77053383E-05  7.28413135E-05  8.23657207E-05  8.52648377E-05  9.13019146E-05
    1.01711212E-04  1.08244084E-04  1.28048984E-04  1.50272152E-04  1.91733579E-04  2.28803093E-04  2.63871755E-04  2.75036553E-04  2.47972827E-04  2.61866195E-04  2.20880163E-04  2.03989260E-04  1.95777306E-04  1.79371523E-04  1.88923251E-04  1.60801230E-04  1.57801624E-04  1.69256189E-04  1.91951297E-04  2.50304826E-04
    2.41355903E-04  2.15436215E-04  2.14140007E-04  2.01188363E-04  2.08575350E-04  2.02603642E-04  2.08096162E-04  2.15431924E-04  2.30153020E-04  2.10838073E-04  2.21301323E-04  2.69074913E-04  2.90520075E-04  2.96779880E-04  2.88000483E-04  2.59794053E-04  2.26649463E-04  1.85116496E-04  1.96365897E-04  2.19216820E-04
    2.08721862E-04  2.16270659E-04  2.38130040E-04  2.67015569E-04  2.89317843E-04  2.45988066E-04  2.19534539E-04  1.96385701E-04  1.61101598E-04  1.49880048E-04  1.27429872E-04  1.10574418E-04  1.25765329E-04  1.31413583E-04  1.51427682E-04  1.75160581E-04  2.14873622E-04  2.13665761E-04  1.93884917E-04  1.93354852E-04
    2.22951756E-04  2.25310079E-04  1.94952265E-04  1.59134492E-04  1.30953299E-04  1.00057173E-04  9.28534379E-05  8.00369805E-05  6.06463862E-05  4.56158292E-05  4.03884436E-05  4.02309783E-05  4.65027129E-05  5.61614850E-05  6.21044112E-05  7.95215153E-05  8.66535622E-05  1.02782187E-04  1.19475988E-04  1.55623716E-04
    1.25641100E-04  1.45970634E-04  1.60374004E-04  1.54767393E-04  1.34896034E-04  1.33046887E-04  1.30763482E-04  1.23478758E-04  9.25602758E-05  7.64602932E-05  6.83237706E-05  5.92676142E-05  5.26532496E-05  5.52120108E-05  6.29581862E-05  7.07106678E-05  7.14027234E-05  7.02933753E-05  7.06615738E-05  7.18731918E-05
    7.18731918E-05  7.18731918E-05  7.18731918E-05  7.53844933E-05  8.63154125E-05  1.24784652E-04  1.66214073E-04  2.12024484E-04  2.43161784E-04  2.51408881E-04  2.35551065E-04  2.17229452E-04  2.18109354E-04  1.80442165E-04  1.54822351E-04  1.37222487E-04  1.34164178E-04  1.60945796E-04  1.65204418E-04  1.88402423E-04
    2.14621156E-04  2.41411794E-04  2.96304334E-04  2.70659747E-04  2.53183651E-04  2.89568325E-04  3.09926249E-04  3.31460580E-04  2.77237988E-04  2.72117504E-04  2.70301538E-04  2.88708603E-04  2.82925786E-04  3.39013417E-04  4.18662064E-04  4.35643058E-04  4.52851564E-04  3.94813842E-04  3.21411248E-04  2.77636833E-04
    2.52365243E-04  2.42884756E-04  2.50324650E-04  2.50324650E-04  2.50324650E-04  2.50324650E-04  2.50190635E-04  2.64935232E-04  2.83538453E-04  2.97752862E-04  2.93388581E-04  2.41504462E-04  2.10293185E-04  1.97835985E-04  1.63594331E-04  1.51691248E-04  1.47961543E-04  1.48504647E-04  1.73802369E-04  1.74757091E-04
    1.89030414E-04  1.98961201E-04  2.23751230E-04  2.28201802E-04  2.16621055E-04  2.35901816E-04  2.76699154E-04  2.70927109E-04  2.48266221E-04  2.05771272E-04  1.70640872E-04  1.36155267E-04  1.28336066E-04  1.04918520E-04  7.87145677E-05  6.70034740E-05  7.48465619E-05  8.28565975E-05  9.67556789E-05  1.05904311E-04
    1.04887776E-04  1.29687247E-04  1.43462704E-04  1.71880590E-04  2.13935719E-04  2.77288322E-04  1.10839682E-04  1.26742028E-04  1.40823806E-04  1.38744501E-04  1.36723394E-04  1.39250752E-04  1.21939673E-04  1.09613329E-04  7.61546434E-05  6.48330051E-05  6.10717288E-05  5.38774922E-05  5.47964297E-05  6.47076154E-05
    7.06542572E-05  7.17525482E-05  6.36605644E-05  5.95974777E-05  5.95061808E-05  5.95061808E-05  5.95061808E-05  5.95061808E-05  6.40100299E-05  6.40100299E-05  6.40100299E-05  6.40100299E-05  6.40100299E-05  6.40100299E-05  6.40100299E-05  6.40100299E-05  6.40100299E-05  6.40100299E-05  6.40100299E-05  6.40100299E-05
    6.40100299E-05  6.40100299E-05  6.40100299E-05  6.40100299E-05  6.40100299E-05  6.40100299E-05  6.40100299E-05  6.40100299E-05  6.40100299E-05  6.40100299E-05  6.40100299E-05  6.40100299E-05  6.40100299E-05  6.40100299E-05  6.40100299E-05  6.40100299E-05  6.40100299E-05  6.40100299E-05  6.40100299E-05  6.40100299E-05
    6.40100299E-05  6.40100299E-05  6.40100299E-05  6.40100299E-05  6.40100299E-05  6.40100299E-05  6.40100299E-05  6.40100299E-05  7.37133952E-05  7.37133952E-05  7.37133952E-05  7.37133952E-05  1.04105301E-04  1.45624213E-04  1.66456030E-04  2.00049157E-04  2.01336740E-04  1.93762033E-04  1.75869072E-04  1.44185626E-04
    1.41191700E-04  1.20752691E-04  1.19114967E-04  1.12455913E-04  1.17673190E-04  1.62427033E-04  1.86735445E-04  2.13878535E-04  2.56394497E-04  3.00403972E-04  3.66749696E-04  3.46604054E-04  3.50925546E-04  4.27326667E-04  4.26321014E-04  3.91335746E-04  3.75282989E-04  3.81117648E-04  3.91131266E-04  4.23779630E-04
    4.09844811E-04  4.54453926E-04  5.45137339E-04  5.29335954E-04  4.69261573E-04  3.69146568E-04  3.21857117E-04  3.00718906E-04  2.63621140E-04  2.58923395E-04  2.58923395E-04  2.58923395E-04  2.58923395E-04  2.55553031E-04  2.55553031E-04  2.55553031E-04  2.55553031E-04  2.55553031E-04  2.55553031E-04  2.55553031E-04
    2.55553031E-04  2.55553031E-04  2.55553031E-04  2.55553031E-04  2.55553031E-04  2.55553031E-04  2.55553031E-04  2.55553031E-04  2.55553031E-04  2.55553031E-04  2.55553031E-04  2.55553031E-04  2.55553031E-04  2.55553031E-04  2.55553031E-04  2.55553031E-04  2.55553031E-04  2.55553031E-04  2.55553031E-04  2.55553031E-04
    2.55553031E-04  2.55553031E-04  2.55553031E-04  2.55553031E-04  2.55553031E-04  2.55553031E-04  2.55553031E-04  2.55553031E-04  2.55553031E-04  2.55553031E-04  2.55553031E-04  2.55553031E-04  2.55553031E-04  2.13254566E-04  2.13254566E-04  2.13254566E-04  2.13254566E-04  2.01300520E-04  2.22562068E-04  2.60137911E-04
    2.63795041E-04  2.48522126E-04  2.37809398E-04  2.35490034E-04  2.21062590E-04  2.03573726E-04  1.95672901E-04  1.94840200E-04  2.21427323E-04  2.18883468E-04  2.40139936E-04  2.50168709E-04  2.90223754E-04  3.07152704E-04  2.89541603E-04  2.91179520E-04  3.23570193E-04  3.30883609E-04  3.29937485E-04  3.08370303E-04
    2.66978058E-04  2.10805757E-04  2.01834035E-04  1.74037434E-04  1.60092232E-04  1.54635912E-04  1.63641721E-04  1.74432418E-04  1.78605464E-04  1.68283517E-04  1.67573766E-04  2.16325210E-04  2.34453474E-04  2.84261924E-04  3.51955606E-04  5.03609119E-04  1.08926559E-04  1.20419439E-04  1.28584117E-04  1.22720052E-04
    1.16896113E-04  1.10510373E-04  9.74132719E-05  9.07571550E-05  7.40636981E-05  6.90812155E-05  7.60216495E-05  7.80214727E-05  7.71573369E-05  7.93711451E-05  7.99042934E-05  7.16106962E-05  6.35612246E-05  6.33890702E-05  6.63717574E-05  7.48475038E-05  7.48475038E-05  7.48475038E-05  7.48475038E-05  8.97607629E-05
    1.06190696E-04  1.25689007E-04  1.37854388E-04  1.51090888E-04  1.40349945E-04  1.32744362E-04  1.19756444E-04  1.23481380E-04  1.32653396E-04  1.11672156E-04  1.15758222E-04  1.39105786E-04  1.65143467E-04  2.22359455E-04  2.39434126E-04  3.08961979E-04  3.61671699E-04  3.85846113E-04  4.74451294E-04  4.62933667E-04
    4.51033452E-04  5.08290591E-04  4.70631882E-04  4.59907752E-04  4.34862517E-04  4.52857771E-04  4.63526769E-04  5.26137256E-04  5.37934012E-04  5.51326040E-04  5.75276035E-04  5.35781032E-04  4.69022681E-04  3.89247373E-04  3.34496643E-04  3.14940954E-04  2.75644330E-04  2.35941218E-04  2.04690673E-04  2.04690673E-04
    2.04690673E-04  2.04690673E-04  1.72768113E-04  1.67954967E-04  2.08387049E-04  2.64742263E-04  3.02293468E-04  3.24316034E-04  3.31196740E-04  3.19101868E-04  2.97029675E-04  3.17072009E-04  3.22702503E-04  3.11702147E-04  3.47122297E-04  3.37167904E-04  3.77474079E-04  3.84837199E-04  4.08804722E-04  4.27748901E-04
    4.00700588E-04  4.05338027E-04  4.57929759E-04  4.56927456E-04  4.11161395E-04  3.77147635E-04  3.47603575E-04  3.07350903E-04  3.16896639E-04  3.13297876E-04  3.19711200E-04  2.90150652E-04  2.65655789E-04  2.42912283E-04  2.46266545E-04  2.66305660E-04  2.81117012E-04  3.29906054E-04  3.14177578E-04  3.71235478E-04
    4.91867932E-04  6.26516455E-04  1.30667821E-04  1.44318809E-04  1.49552678E-04  1.33894480E-04  1.19917425E-04  1.20422838E-04  1.16662483E-04  1.18175235E-04  9.51005996E-05  9.73780853E-05  9.09540098E-05  7.93602413E-05  6.80954358E-05  7.40001200E-05  7.37315677E-05  7.67881083E-05  8.25027633E-05  8.68756514E-05
    8.51372295E-05  9.15723066E-05  1.05829284E-04  1.18292107E-04  1.39524140E-04  1.45795366E-04  1.45953491E-04  1.32867833E-04  1.29833820E-04  1.23027364E-04  1.16068948E-04  1.30350124E-04  1.38581429E-04  1.75995785E-04  2.12076014E-04  2.36117195E-04  3.05832908E-04  3.23366407E-04  3.61255768E-04  4.20989702E-04
    4.41797681E-04  5.33516797E-04  4.99816827E-04  4.46129733E-04  4.87373319E-04  5.12622269E-04  5.14392045E-04  4.83222968E-04  4.91219727E-04  5.35473606E-04  6.01176762E-04  5.48044402E-04  5.18734332E-04  4.94820075E-04  4.46245424E-04  3.60424874E-04  2.99728298E-04  2.49986158E-04  2.33731642E-04  1.96450938E-04
    1.68495862E-04  1.61734954E-04  1.49940330E-04  1.78854067E-04  2.44169697E-04  3.24674656E-04  4.16256295E-04  4.36852634E-04  4.69745222E-04  4.76913668E-04  4.79032096E-04  4.85908932E-04  4.95204708E-04  5.16307298E-04  5.85284474E-04  5.53226730E-04  5.80398981E-04  5.82007943E-04  5.78324996E-04  5.47193253E-04
    5.46620558E-04  5.33445910E-04  5.50764780E-04  5.29958232E-04  5.10011552E-04  4.82948429E-04  4.14444804E-04  3.48427351E-04  3.96071060E-04  4.37543416E-04  4.29397737E-04  3.51483839E-04  3.02686238E-04  2.87109741E-04  3.10532004E-04  3.32357282E-04  3.12023455E-04  3.56814487E-04  3.61347989E-04  4.23058404E-04
    5.80615095E-04  7.84748001E-04  1.68875569E-04  1.64640623E-04  1.53157038E-04  1.46327898E-04  1.55039633E-04  1.63135545E-04  1.46030373E-04  1.39217763E-04  1.03957516E-04  9.40995789E-05  9.17274808E-05  8.49741114E-05  8.26363718E-05  9.27920411E-05  1.01487551E-04  1.10605961E-04  1.13930758E-04  1.16924260E-04
    1.21780230E-04  1.29925630E-04  1.43634060E-04  1.64449847E-04  1.95435506E-04  1.98948271E-04  2.13079108E-04  2.02879886E-04  1.84321878E-04  1.65299258E-04  1.55193051E-04  1.96195418E-04  2.04900921E-04  2.34710321E-04  2.44902181E-04  2.54379038E-04  3.26565376E-04  3.46085448E-04  4.15390384E-04  4.93024850E-04
    5.16487032E-04  5.23599195E-04  4.56004004E-04  4.21452747E-04  4.28382827E-04  4.22633076E-04  4.57640247E-04  4.89140243E-04  5.46910568E-04  5.89507866E-04  6.24667317E-04  5.54457077E-04  4.63423436E-04  4.04882515E-04  3.47857722E-04  2.90929907E-04  2.25002261E-04  1.88614898E-04  1.68087218E-04  1.36550695E-04
    1.31327320E-04  1.60464141E-04  1.81986969E-04  2.15614908E-04  2.98210877E-04  4.33993546E-04  5.61670640E-04  6.69316775E-04  7.42578045E-04  7.86067635E-04  7.69876032E-04  7.36681245E-04  7.35226329E-04  7.22736899E-04  8.08869758E-04  7.35431031E-04  7.56890250E-04  7.23003981E-04  7.42006662E-04  7.56315160E-04
    6.89581405E-04  6.65990851E-04  7.40538488E-04  7.61650908E-04  7.20415794E-04  6.03774694E-04  4.91154592E-04  4.50853705E-04  5.11727345E-04  5.62074159E-04  5.59521220E-04  4.56970301E-04  3.99810466E-04  3.91115699E-04  4.14537837E-04  4.04093559E-04  3.63408530E-04  4.46292236E-04  4.86366172E-04  6.18981174E-04
    7.45571241E-04  9.60376349E-04  1.95644191E-04  1.95960387E-04  2.05158704E-04  2.16340763E-04  2.16092895E-04  2.15399126E-04  1.97015725E-04  1.80315950E-04  1.30091321E-04  1.15472899E-04  1.12045723E-04  1.03322347E-04  1.05382780E-04  1.23173979E-04  1.35014369E-04  1.39608806E-04  1.43707273E-04  1.52702491E-04
    1.60467668E-04  1.74290382E-04  1.95887674E-04  2.04410086E-04  2.25255220E-04  2.48041637E-04  2.41397234E-04  2.26970408E-04  2.10718801E-04  2.04610646E-04  2.16488858E-04  2.62838250E-04  2.50058736E-04  2.59669414E-04  2.61385200E-04  2.84873425E-04  4.17356221E-04  4.58200666E-04  4.77651493E-04  4.91950093E-04
    4.46236782E-04  4.25964515E-04  3.66992467E-04  3.19572702E-04  3.75957665E-04  4.39292563E-04  5.29692324E-04  5.95052025E-04  6.82594411E-04  7.38674510E-04  7.03418998E-04  5.56225356E-04  4.30678534E-04  3.52737396E-04  2.84902198E-04  2.34865680E-04  1.94130315E-04  1.59962490E-04  1.53890052E-04  1.51841273E-04
    1.61255759E-04  1.92629478E-04  2.25469866E-04  2.94092646E-04  4.30207325E-04  6.26194282E-04  8.84410723E-04       0.00101272       0.00108343       0.00113398       0.00110355       0.00111391       0.00111076  9.81614269E-04  9.88393562E-04  8.69382309E-04  8.96415495E-04  8.37112126E-04  8.86404237E-04  9.69410326E-04
    9.68027975E-04  9.46028490E-04       0.00105963  9.89363141E-04  8.88050243E-04  7.48138203E-04  6.73810938E-04  6.30685488E-04  7.35018880E-04  7.98613843E-04  7.86741519E-04  6.62177403E-04  5.95733511E-04  5.61041246E-04  5.70908794E-04  6.12442599E-04  6.60935183E-04  8.13412292E-04  7.83126080E-04  8.62095600E-04
    9.66140820E-04       0.00131312  2.70297624E-04  2.89508629E-04  3.32200674E-04  3.28979065E-04  3.23306874E-04  3.02489149E-04  2.60419761E-04  2.26346958E-04  1.57628819E-04  1.42960548E-04  1.37327136E-04  1.30066064E-04  1.33367246E-04  1.45552453E-04  1.43681138E-04  1.48973483E-04  1.64394523E-04  1.82322466E-04
    1.91737424E-04  1.99526519E-04  1.96887861E-04  2.00306090E-04  2.27999642E-04  2.50725210E-04  2.33962717E-04  2.15522771E-04  2.23926471E-04  2.22821324E-04  2.26521426E-04  2.67628859E-04  2.45861948E-04  2.64255290E-04  3.12738080E-04  3.65125990E-04  4.78047556E-04  4.72335270E-04  4.32014391E-04  3.94819087E-04
    3.61799875E-04  3.57467250E-04  3.14857029E-04  3.42575047E-04  4.47173061E-04  5.29202649E-04  6.58868328E-04  7.82980649E-04  8.34593098E-04  7.87600465E-04  7.17678034E-04  5.35077220E-04  3.78880609E-04  3.05199744E-04  2.46301758E-04  1.94259420E-04  1.66250700E-04  1.54933128E-04  1.73136774E-04  1.89079252E-04
    2.13325008E-04  2.86578411E-04  3.48311435E-04  4.65673105E-04  6.29539203E-04  8.47456423E-04       0.00103465       0.00100879       0.00107509       0.00129502       0.00132928       0.00133097       0.00133136       0.00122049       0.00114530       0.00104134       0.00109166       0.00108702       0.00128534       0.00136636
         0.00125650       0.00117669       0.00116328       0.00112230       0.00102237  9.18125592E-04  8.80083451E-04  8.74386382E-04       0.00105612       0.00115571       0.00117770       0.00110309  9.91276897E-04  9.56990370E-04       0.00102425       0.00103803  9.37142957E-04       0.00108070  9.49642024E-04       0.00101887
         0.00124933       0.00177516  3.16485056E-04  3.79122139E-04  4.04504652E-04  3.83246869E-04  3.45091063E-04  2.95428083E-04  2.42462814E-04  2.24685044E-04  1.68230558E-04  1.57616188E-04  1.63618935E-04  1.68685398E-04  1.73530247E-04  1.96402157E-04  1.90084210E-04  1.81796278E-04  1.91092962E-04  2.24632636E-04
    2.40300096E-04  2.26609449E-04  2.09072921E-04  2.31783916E-04  2.48218996E-04  2.24613924E-04  2.12988719E-04  2.15536009E-04  2.23808571E-04  2.09426341E-04  1.99657122E-04  2.36610515E-04  2.37136176E-04  2.66059730E-04  3.20954749E-04  3.39806759E-04  4.27531978E-04  3.85269848E-04  3.48143949E-04  3.07712700E-04