# File generated by Flopy version 3.7.0 on 07/12/2024 at 14:26:34.
BEGIN options
END options

BEGIN griddata
  strt
    INTERNAL  FACTOR  1.0
        15.00000000      15.00000000      15.00000000      15.00000000      15.00000000      15.00000000      15.00000000      15.00000000      15.00000000      15.00000000      15.00000000      15.00000000      15.00000000      15.00000000      15.00000000      15.00000000      15.00000000      15.00000000      15.00000000      15.00000000
        15.00000000      15.00000000      15.00000000      15.00000000      15.00000000      15.00000000      15.00000000      15.00000000      15.00000000      15.00000000      15.00000000      15.00000000      15.00000000      15.00000000      15.00000000      15.00000000      15.00000000      15.00000000      15.00000000      15.00000000
        15.00000000      15.00000000      15.00000000      15.00000000      15.00000000      15.00000000      15.00000000      15.00000000      15.00000000      15.00000000      15.00000000      15.00000000      15.00000000      15.00000000      15.00000000      15.00000000      15.00000000      15.00000000      15.00000000      15.00000000
        15.00000000      15.00000000      15.00000000      15.00000000      15.00000000      15.00000000      15.00000000      15.00000000      15.00000000      15.00000000      15.00000000      15.00000000      15.00000000      15.00000000      15.00000000      15.00000000      15.00000000      15.00000000      15.00000000      15.00000000
        15.00000000      15.00000000      15.00000000      15.00000000      15.00000000      15.00000000      15.00000000      15.00000000      15.00000000      15.00000000      15.00000000      15.00000000      15.00000000      15.00000000      15.00000000      15.00000000      15.00000000      15.00000000      15.00000000      15.00000000
        15.04728346      15.04811685      15.04883992      15.04785340      15.04486729      15.04051138      15.03548909      15.03128891      15.02740695      15.02324323      15.01947650      15.01669489      15.01432400      15.01247769      15.01142573      15.01098081      15.01095072      15.01104127      15.01140704      15.01174153
        15.01189386      15.01209187      15.01237077      15.01306934      15.01397822      15.01514300      15.01696908      15.01950589      15.02259235      15.02566049      15.02818473      15.02993280      15.03158252      15.03383371      15.03673786      15.03889500      15.03958509      15.03981574      15.03974246      15.03917583
        15.03849173      15.03652142      15.03358834      15.03087695      15.02865041      15.02730597      15.02697023      15.02774594      15.02947535      15.03084533      15.03164986      15.03123420      15.03006654      15.02833775      15.02644990      15.02459058      15.02404736      15.02454345      15.02428802      15.02305005
        15.02138129      15.01993478      15.01920944      15.01896279      15.01927127      15.01915377      15.01823883      15.01598249      15.01031353      14.99476423      15.00955702      15.01592603      15.02059809      15.02456008      15.02693874      15.02813614      15.02877218      15.02896934      15.02893302      15.02983587
        15.03169199      15.03480842      15.03947248      15.04521829      15.05046115      15.05497654      15.05964725      15.06376124      15.06880211      15.07465792      15.08179526      15.09085507      15.09868110      15.10270769      15.10495742      15.10351644      15.10072203      15.09822962      15.09810708      15.10042817
        15.08717172      15.08733289      15.08617885      15.08255445      15.07614964      15.06875115      15.06138286      15.05462675      15.04850955      15.04214821      15.03605014      15.03132320      15.02786174      15.02551617      15.02420155      15.02382279      15.02403586      15.02444956      15.02475638      15.02488231
        15.02484637      15.02504450      15.02563388      15.02676083      15.02855189      15.03077213      15.03403484      15.03877817      15.04393263      15.04858324      15.05225994      15.05533336      15.05890002      15.06358303      15.06870641      15.07227442      15.07553470      15.07891823      15.08103920      15.08210130
        15.08178815      15.07961221      15.07620576      15.07233044      15.06928427      15.06870384      15.07105249      15.07390838      15.07653960      15.07804018      15.07745535      15.07551227      15.07148604      15.06611244      15.06298419      15.06141761      15.06014816      15.05846538      15.05523571      15.05154002
        15.04883401      15.04747684      15.04710435      15.04765656      15.04823464      15.04838428      15.04710291      15.04486511      15.04161679      15.03741073      15.04374591      15.04982489      15.05483837      15.05801769      15.05956767      15.06024119      15.06002639      15.05920036      15.05872573      15.06100402
        15.06526898      15.07065123      15.07795853      15.08598317      15.09492240      15.10418511      15.11309978      15.12155838      15.13080062      15.14236335      15.15452019      15.16735486      15.17729750      15.18278382      15.18557329      15.18709917      15.19043759      15.19702082      15.20570436      15.21101042
        15.11505931      15.11299533      15.10886700      15.10306304      15.09569102      15.08792215      15.08058717      15.07321200      15.06602156      15.05883404      15.05233022      15.04694668      15.04302035      15.04053411      15.03914239      15.03855097      15.03844113      15.03832052      15.03789962      15.03733511
        15.03712816      15.03756990      15.03851920      15.04000215      15.04241420      15.04610205      15.05119156      15.05750805      15.06386224      15.06932501      15.07435247      15.07945578      15.08529835      15.09208422      15.09941942      15.10652494      15.11446486      15.12214348      15.12898834      15.13525251
        15.13788264      15.13703147      15.13492545      15.13372707      15.13489092      15.13801610      15.14046788      15.14256602      15.14397460      15.14218200      15.13713699      15.13068370      15.12344031      15.11688248      15.11105040      15.10738870      15.10363922      15.09864235      15.09287809      15.08838532
        15.08575408      15.08533358      15.08616103      15.08800267      15.08905282      15.08912648      15.08800893      15.08593956      15.08404991      15.08264140      15.08415031      15.08575992      15.08656538      15.08699620      15.08788232      15.08941019      15.09100734      15.09282445      15.09517304      15.09920531
        15.10472618      15.11105942      15.11967848      15.13113679      15.14381991      15.15537634      15.16690803      15.17915872      15.19217413      15.20629469      15.21920347      15.22887985      15.23802440      15.24695952      15.25724134      15.26938305      15.28315270      15.29776989      15.30862072      15.31398601
        15.12875267      15.12614505      15.12186380      15.11637777      15.10996443      15.10333672      15.09667851      15.08985841      15.08311989      15.07651760      15.07040546      15.06527527      15.06116805      15.05793427      15.05568210      15.05393652      15.05238904      15.05076427      15.04944399      15.04871116
        15.04886683      15.04992445      15.05158025      15.05437303      15.05841637      15.06375024      15.07018280      15.07695370      15.08389246      15.09111737      15.09848172      15.10613918      15.11416777      15.12358062      15.13438128      15.14735037      15.16162309      15.17602509      15.19062107      15.20284464
        15.21150923      15.21600586      15.22193392      15.22830782      15.23261522      15.23492447      15.23198239      15.22799288      15.22266614      15.21463029      15.20442532      15.19297174      15.18179350      15.17289723      15.16444819      15.15631790      15.14812116      15.14031516      15.13424612      15.13015066
        15.12853409      15.12882434      15.13031392      15.13190792      15.13189046      15.13044101      15.12844761      15.12513444      15.12098991      15.11685561      15.11404701      15.11223674      15.11181712      15.11370202      15.11830507      15.12458660      15.13138422      15.13818539      15.14455893      15.15007311
        15.15524969      15.16196755      15.17256000      15.18634258      15.19976163      15.21243614      15.22651760      15.24207918      15.25691745      15.26926483      15.28033543      15.29173841      15.30459147      15.31969317      15.33757964      15.35651127      15.37742987      15.39674150      15.41070812      15.41940496
        15.13841136      15.13611611      15.13286781      15.12881471      15.12368402      15.11814556      15.11259586      15.10691490      15.10164287      15.09659530      15.09171187      15.08721568      15.08264528      15.07792094      15.07366899      15.06991222      15.06673849      15.06430724      15.06266025      15.06247951
        15.06339471      15.06539452      15.06860836      15.07355123      15.07975233      15.08598473      15.09267146      15.10048994      15.10900194      15.11869890      15.12874151      15.13897707      15.15069008      15.16522486      15.18273273      15.20165938      15.22284917      15.24618492      15.27089042      15.29229707
        15.31316676      15.32998331      15.34341558      15.34933291      15.34838747      15.34175528      15.33168955      15.31908388      15.30338996      15.28710242      15.27023733      15.25365006      15.23791171      15.22369772      15.21171909      15.20011031      15.18945931      15.18123654      15.17602087      15.17327333
        15.17258480      15.17293961      15.17292441      15.17212037      15.16984422      15.16557587      15.16010463      15.15409776      15.14788199      15.14263933      15.13943642      15.13902264      15.14228624      15.15036576      15.16240630      15.17514966      15.18787142      15.19872277      15.20703536      15.21373391
        15.22038407      15.22958105      15.24190143      15.25524755      15.26852865      15.28360098      15.29934485      15.31626172      15.33085698      15.34290873      15.35675344      15.37595224      15.39479258      15.41365849      15.43409591      15.45786441      15.48480912      15.50721548      15.52427875      15.53419993
        15.14951961      15.14794036      15.14533131      15.14217008      15.13836530      15.13414347      15.13038906      15.12680040      15.12356542      15.11980488      15.11568108      15.11127095      15.10574238      15.09947426      15.09333477      15.08791128      15.08396258      15.08206515      15.08210164      15.08360980
        15.08621307      15.09042442      15.09623717      15.10228918      15.10898842      15.11537038      15.12307547      15.13377471      15.14490997      15.15748735      15.17100273      15.18750713      15.20703776      15.23085113      15.25887643      15.29040951      15.32268144      15.35624360      15.38674424      15.41451647
        15.44006848      15.45840161      15.46534658      15.46285908      15.45508516      15.44075856      15.42245246      15.39977213      15.37421078      15.34935902      15.32569913      15.30501698      15.28642252      15.26905545      15.25407613      15.24119411      15.23125378      15.22438694      15.21993761      15.21786910
        15.21657873      15.21442439      15.21087616      15.20592541      15.20064597      15.19404347      15.18634220      15.17906879      15.17261235      15.16898034      15.16953053      15.17496215      15.18739214      15.20617896      15.22582036      15.24297169      15.25757219      15.26935560      15.27990471      15.29239792
        15.30730479      15.32286668      15.33571145      15.34814857      15.36327437      15.38158253      15.40163348      15.41980328      15.43602612      15.45417641      15.47569216      15.49874071      15.52204701      15.54510299      15.56974861      15.59484999      15.61613551      15.63138700      15.64275075      15.64765687
        15.16413806      15.16270774      15.16054577      15.15834064      15.15662563      15.15485503      15.15327263      15.15112720      15.14832052      15.14452196      15.14019355      15.13512442      15.12889246      15.12129613      15.11429803      15.10900115      15.10674079      15.10824583      15.11237089      15.11756936
        15.12348520      15.13011891      15.13719896      15.14549343      15.15477467      15.16451561      15.17611334      15.18881350      15.20290357      15.22100206      15.24510583      15.27499451      15.30945784      15.34737528      15.38635485      15.42522101      15.46047919      15.49090737      15.51681133      15.54044422
        15.55705451      15.56624381      15.56511634      15.55702535      15.54308077      15.52136986      15.49395008      15.46392296      15.43241705      15.40226343      15.37374524      15.35035545      15.33060418      15.31279902      15.29810691      15.28679569      15.27797070      15.27046861      15.26448196      15.25895140
        15.25357589      15.24691801      15.23979556      15.23226473      15.22475942      15.21755500      15.21091710      15.20595713      15.20370680      15.20634880      15.21549280      15.23212339      15.25591829      15.28233917      15.30450703      15.32193440      15.33809318      15.35574915      15.37781137      15.40566936
        15.43291865      15.45678128      15.48107740      15.50508452      15.52718486      15.54841958      15.56638844      15.57602689      15.58761744      15.60695592      15.62950625      15.65121564      15.67399005      15.69691721      15.71808003      15.73331846      15.74142286      15.74622713      15.74938573      15.75092338
        15.18270999      15.18136026      15.17995802      15.17920364      15.17965995      15.18013637      15.17970108      15.17761207      15.17501997      15.17165900      15.16716999      15.16154007      15.15511652      15.14757846      15.14156561      15.13967501      15.14378071      15.15282136      15.16365279      15.17319624
        15.18271029      15.19307945      15.20528084      15.22146332      15.23814590      15.25378043      15.26963172      15.28691821      15.30924047      15.33941971      15.37664196      15.41785153      15.46033885      15.49982355      15.53535498      15.56654963      15.59393909      15.61591916      15.63622004      15.65094002
        15.65692307      15.65839029      15.65370892      15.64128790      15.62046331      15.59089136      15.55652576      15.52184813      15.48710048      15.45469351      15.42418367      15.39874504      15.37872510      15.36211377      15.34794944      15.33509975      15.32352058      15.31269901      15.30236610      15.29182002
        15.28166986      15.27219452      15.26347922      15.25583652      15.24896374      15.24379726      15.24163767      15.24356921      15.25178579      15.26533015      15.28663728      15.31509023      15.34650833      15.37511401      15.39946409      15.42496986      15.45551627      15.49159847      15.53609243      15.58451164
        15.62899423      15.66602792      15.70066274      15.73261392      15.75241873      15.76052772      15.76228353      15.75922221      15.75957368      15.76828763      15.78162536      15.79743204      15.81031868      15.82050127      15.82758312      15.83151725      15.83274899      15.83310340      15.83214418      15.83158057
        15.20852697      15.20756196      15.20629903      15.20644573      15.20788798      15.20899207      15.20899079      15.20845311      15.20756485      15.20604354      15.20328208      15.19952532      15.19551577      15.19246197      15.19491860      15.20379985      15.21781070      15.23600235      15.25424054      15.27189833
        15.28908746      15.31268530      15.33880141      15.36131359      15.37972275      15.39719635      15.41821142      15.44362629      15.47141332      15.50443212      15.54127416      15.57792160      15.61086177      15.64074570      15.66907745      15.69348395      15.71419950      15.73045770      15.74188352      15.74770544
        15.74793806      15.74341015      15.73259066      15.71363957      15.68597957      15.65262747      15.61700665      15.58088792      15.54515015      15.51241975      15.48294849      15.45740776      15.43648675      15.41749213      15.40038071      15.38297430      15.36519132      15.34967389      15.33458448      15.32061156
        15.30803064      15.29729813      15.28886720      15.28305340      15.28046286      15.28198369      15.28823735      15.30216425      15.32297710      15.35001712      15.38853564      15.43247693      15.47490720      15.51743070      15.56108737      15.61041309      15.66735123      15.73250015      15.79328024      15.84943114
        15.89445083      15.92656185      15.94859194      15.96042425      15.96112800      15.95058317      15.93511081      15.92176842      15.91247004      15.90977779      15.91164584      15.91395476      15.91358649      15.91050346      15.90565259      15.90218160      15.90069679      15.90061961      15.89893886      15.89735204
        15.24538791      15.24442006      15.24380188      15.24434612      15.24535066      15.24698040      15.25049993      15.25462828      15.25780401      15.26025751      15.26226632      15.26590010      15.27338913      15.28770678      15.30792765      15.33287740      15.36333389      15.39701024      15.42725002      15.46145330
        15.49423363      15.52153973      15.53800484      15.54721212      15.55672983      15.56994123      15.59013530      15.61531189      15.63896741      15.66287959      15.68930869      15.71548072      15.74240800      15.77020514      15.79782542      15.81806461      15.83069654      15.83759321      15.83961910      15.83954231
        15.83374228      15.82019735      15.80020170      15.77422957      15.74334431      15.70920369      15.67528039      15.64267490      15.61058474      15.57976151      15.55076750      15.52424237      15.50046952      15.47737571      15.45383378      15.43068229      15.40766150      15.38701326      15.36896546      15.35304778
        15.33987855      15.32948155      15.32325918      15.32248376      15.32760644      15.34012018      15.36153217      15.39365430      15.43322764      15.48508419      15.55218864      15.62300366      15.69369803      15.76751978      15.83561008      15.90165649      15.97216303      16.04172518      16.09045541      16.12608336
        16.14755838      16.15519636      16.15303914      16.13833790      16.11745726      16.09596704      16.07244830      16.05155748      16.03533872      16.02299439      16.01231681      16.00148695      15.99231639      15.98404686      15.97673227      15.97047290      15.96550579      15.96113417      15.95800133      15.95637834
        15.29141478      15.29251187      15.29540826      15.29943537      15.30555561      15.31229211      15.32021675      15.32863417      15.33978146      15.35327396      15.37074516      15.39600491      15.43042516      15.47433521      15.52354590      15.57486340      15.62547865      15.67537058      15.71709376      15.73809956
        15.74665110      15.74531652      15.73523864      15.72726981      15.72377370      15.72613412      15.74009241      15.76162760      15.78238014      15.80108304      15.82178308      15.84735941      15.87590250      15.90432080      15.92745948      15.94034093      15.94452171      15.94311599      15.93622024      15.92476762
        15.90832218      15.88630497      15.86244406      15.83560562      15.80688482      15.77670319      15.74667995      15.71888412      15.68999021      15.65907808      15.62562624      15.59364310      15.56496840      15.53782090      15.51021089      15.48163931      15.45507820      15.43176882      15.41242145      15.39694221
        15.38522840      15.37830115      15.37758338      15.38542855      15.40380242      15.43457687      15.47766513      15.53231137      15.60291570      15.68847494      15.78840177      15.88299811      15.96955501      16.05679967      16.13045811      16.19497602      16.25424262      16.29883934      16.32007392      16.32664511
        16.32339825      16.31031486      16.28895790      16.26177440      16.23115990      16.20201504      16.17534680      16.15077971      16.12926388      16.10983475      16.09183649      16.07825391      16.06703593      16.05637709      16.04645423      16.03555701      16.02510928      16.01537289      16.00864897      16.00494601
        15.36092184      15.36833911      15.37706687      15.38573857      15.39796066      15.41046007      15.42537565      15.44580137      15.47399411      15.50802844      15.55574852      15.61203610      15.68042987      15.76176237      15.84116065      15.91047853      15.96263889      15.99349108      16.00336268      15.98537193
        15.95596295      15.93006090      15.90585472      15.88616919      15.87124488      15.86670450      15.87844961      15.89811010      15.91899166      15.94047299      15.96482297      15.99227549      16.01605060      16.03506683      16.04624145      16.04772702      16.04193201      16.03076824      16.01488178      15.99386572
        15.97151706      15.94867791      15.92673881      15.90470859      15.88175088      15.85686378      15.83085425      15.80365114      15.77144708      15.73516672      15.69620064      15.65878917      15.62500805      15.59285432      15.56351223      15.53466141      15.50817168      15.48715969      15.47133996      15.46053995
        15.45431518      15.45473158      15.46347314      15.48452761      15.52028065      15.57182444      15.63897842      15.72411487      15.82669567      15.93833080      16.04740503      16.14567416      16.23401871      16.31329669      16.37421299      16.42042710      16.45259379      16.46735906      16.46609526      16.45412031
        16.43479430      16.41114116      16.38258633      16.35097664      16.31936181      16.28690964      16.25621648      16.22888709      16.20508035      16.18400576      16.16568064      16.15056563      16.13584148      16.11976508      16.10311333      16.08662822      16.07117927      16.05840929      16.04882569      16.04331927
        15.48022461      15.48551162      15.49364765      15.50588318      15.52468297      15.54603343      15.57499376      15.61329401      15.66481352      15.72962691      15.80870070      15.89413723      15.98918160      16.08380221      16.15733615      16.20371477      16.22245345      16.21466537      16.19038682      16.16047835
        16.12725362      16.09694166      16.06747711      16.04179629      16.02282988      16.01887102      16.02956568      16.04726377      16.06970823      16.09500300      16.11570198      16.13107785      16.13949068      16.14096364      16.13563494      16.12501719      16.11055909      16.09289489      16.07270636      16.05160572
        16.03035499      16.00910671      15.98923185      15.96997870      15.94963336      15.92639933      15.89993087      15.86996479      15.83547123      15.79608146      15.75370382      15.71324911      15.67737119      15.64546700      15.61787145      15.59413894      15.57485785      15.56217315      15.55633085      15.55526449
        15.56036758      15.57408529      15.59973025      15.63999653      15.69225381      15.76574603      15.86179756      15.97960403      16.10184086      16.21377765      16.31203775      16.40242822      16.47230830      16.52138839      16.55405238      16.57241467      16.57784107      16.57107975      16.55669509      16.53701283
        16.51254342      16.48615376      16.45671270      16.42451442      16.39216778      16.35897983      16.32641341      16.29724252      16.27192267      16.24823670      16.22595522      16.20464122      16.18453491      16.16386689      16.14279965      16.12333148      16.10651929      16.09359438      16.08467913      16.07983350
        15.64338243      15.64401872      15.65189741      15.67618559      15.70929098      15.74620638      15.79443838      15.85085083      15.91981822      16.00350423      16.09633173      16.19084024      16.27710462      16.33951829      16.37132642      16.37905268      16.36994040      16.35027927      16.32642437      16.30407926
        16.28018141      16.25632828      16.23331330      16.21425592      16.20081556      16.19686271      16.20014296      16.20915228      16.22191321      16.23398715      16.23750722      16.23355722      16.22513793      16.21265276      16.19595358      16.17771677      16.15891464      16.13921740      16.11808848      16.09748593
        16.07830374      16.05810403      16.03756680      16.01764865      15.99662100      15.97303430      15.94663106      15.91689069      15.88355105      15.84595101      15.80477496      15.76560140      15.73204451      15.70507621      15.68504327      15.67066695      15.66139891      15.65810379      15.66457964      15.67958728
        15.70471980      15.74122021      15.79031056      15.85201107      15.92771534      16.02834712      16.14850465      16.27363747      16.38558369      16.47751556      16.55164841      16.60416756      16.63202018      16.64795501      16.65460651      16.65401816      16.64611968      16.63146432      16.61197941      16.59122936
        16.56730836      16.54120249      16.51167592      16.47960154      16.44675046      16.41220581      16.37880002      16.34739851      16.31875545      16.29171375      16.26480510      16.23893387      16.21563273      16.19418466      16.17386865      16.15518781      16.13959497      16.12886322      16.12236539      16.11908816
        15.86370744      15.87259861      15.89259656      15.92657549      15.97077021      16.01978262      16.07433255      16.13402323      16.20541140      16.28271710      16.35958983      16.42488307      16.47105845      16.49488627      16.50008888      16.49354261      16.48309678      16.46959934      16.45324570      16.43796318
        16.42147864      16.40704952      16.39239371      16.37727595      16.36328841      16.35166503      16.34292375      16.33629304      16.33119671      16.32434392      16.31370788      16.29892440      16.28146150      16.26173970      16.24117093      16.22072172      16.20029974      16.17966335      16.15821031      16.13667876
        16.11574495      16.09547307      16.07545708      16.05529863      16.03439359      16.01122125      15.98609177      15.95868704      15.92922859      15.89719856      15.86097484      15.82618159      15.79821518      15.77896370      15.76802898      15.76517576      15.76987703      15.78266905      15.80453291      15.83546144
        15.87792269      15.93494982      16.00452375      16.08735927      16.18678192      16.29912089      16.41359063      16.51519720      16.59412667      16.64974884      16.68427021      16.69993117      16.70438556      16.70460399      16.70029206      16.69280605      16.68126921      16.66640947      16.64781019      16.62707424
        16.60352138      16.57744780      16.54762995      16.51495759      16.48185350      16.44624216      16.41044823      16.37717441      16.34618190      16.31702482      16.28939159      16.26370011      16.24049906      16.21977249      16.20160378      16.18684510      16.17510001      16.16671204      16.16118089      16.15773803
        16.14685192      16.16101757      16.18894483      16.22275870      16.26026889      16.29754589      16.33930074      16.38761068      16.44593290      16.50276018      16.54601166      16.57446177      16.59159374      16.59855353      16.59754745      16.58980057      16.57923336      16.56680482      16.55200508      16.53857924
        16.52551881      16.51294496      16.49783819      16.48092125      16.46198237      16.44191373      16.42432833      16.40681354      16.39092102      16.37522393      16.35826147      16.34030332      16.32125691      16.29990264      16.27776255      16.25663821      16.23652882      16.21680284      16.19617240      16.17531912
        16.15497479      16.13471083      16.11536098      16.09593467      16.07593321      16.05491510      16.03291215      16.00920383      15.98361441      15.95736496      15.92894506      15.90151952      15.88085605      15.87162678      15.87493865      15.88645358      15.90489045      15.93075117      15.96397852      16.00433154
        16.05668334      16.12466051      16.20736338      16.30218100      16.40446001      16.50416172      16.58966359      16.65382121      16.69397597      16.71615656      16.72775287      16.73180333      16.73137288      16.72803387      16.72206798      16.71427392      16.70305912      16.68830693      16.67021282      16.64977917
        16.62621896      16.59986695      16.57044635      16.53865887      16.50540909      16.46965606      16.43343265      16.39904588      16.36800639      16.33936451      16.31246353      16.28836849      16.26757927      16.24975104      16.23423309      16.22139364      16.21081445      16.20188890      16.19535440      16.19127340
        16.44648816      16.45656866      16.46970629      16.48601400      16.50502815      16.52710155      16.55567406      16.58938178      16.62203367      16.64932079      16.66504846      16.67237631      16.67400669      16.66984597      16.66067623      16.64857556      16.63403086      16.61828735      16.60212587      16.58762870
        16.57409936      16.56003777      16.54422297      16.52721824      16.50820320      16.48715009      16.46574284      16.44387133      16.42370278      16.40515632      16.38650122      16.36735388      16.34837990      16.32857396      16.30781073      16.28788015      16.26924328      16.25102146      16.23208175      16.21282725