# File generated by Flopy version 3.7.0 on 07/16/2024 at 15:16:34.
BEGIN options
  PRINT_OPTION  summary
  COMPLEXITY  complex
END options

BEGIN linear
  LINEAR_ACCELERATION  bicgstab
END linear

