# File generated by Flopy version 3.6.0 on 10/29/2024 at 12:46:24.
BEGIN griddata
  strt
    INTERNAL  FACTOR  1.0
        15.00000000      15.00000000      15.00000000      15.00000000      15.00000000      15.00000000      15.00000000      15.00000000      15.00000000      15.00000000      15.00000000      15.00000000      15.00000000      15.00000000      15.00000000      15.00000000      15.00000000      15.00000000      15.00000000      15.00000000
        15.00000000      15.00000000      15.00000000      15.00000000      15.00000000      15.00000000      15.00000000      15.00000000      15.00000000      15.00000000      15.00000000      15.00000000      15.00000000      15.00000000      15.00000000      15.00000000      15.00000000      15.00000000      15.00000000      15.00000000
        15.00000000      15.00000000      15.00000000      15.00000000      15.00000000      15.00000000      15.00000000      15.00000000      15.00000000      15.00000000      15.00000000      15.00000000      15.00000000      15.00000000      15.00000000      15.00000000      15.00000000      15.00000000      15.00000000      15.00000000
        15.00000000      15.00000000      15.00000000      15.00000000      15.00000000      15.00000000      15.00000000      15.00000000      15.00000000      15.00000000      15.00000000      15.00000000      15.00000000      15.00000000      15.00000000      15.00000000      15.00000000      15.00000000      15.00000000      15.00000000
        15.00000000      15.00000000      15.00000000      15.00000000      15.00000000      15.00000000      15.00000000      15.00000000      15.00000000      15.00000000      15.00000000      15.00000000      15.00000000      15.00000000      15.00000000      15.00000000      15.00000000      15.00000000      15.00000000      15.00000000
        15.13811974      15.13708681      15.13626567      15.13480371      15.13010225      15.12236050      15.11083630      15.10016580      15.08968231      15.07810674      15.06843043      15.05878494      15.05081956      15.04567152      15.04144753      15.03541439      15.02821401      15.02119368      15.01579733      15.01211451
        15.00922394      15.00720324      15.00598644      15.00537533      15.00499043      15.00477292      15.00469635      15.00472158      15.00484086      15.00497406      15.00503256      15.00507562      15.00503312      15.00495024      15.00493605      15.00499182      15.00503292      15.00524515      15.00552348      15.00594261
        15.00656943      15.00727146      15.00804816      15.00906925      15.01019420      15.01115007      15.01209651      15.01323590      15.01449170      15.01554146      15.01622669      15.01689855      15.01771413      15.01858926      15.01933247      15.01997041      15.02061175      15.02178196      15.02349189      15.02517680
        15.02725593      15.03029612      15.03341911      15.03593300      15.03681835      15.03644895      15.03560989      15.03408759      15.03140230      15.02810069      15.02550632      15.02328074      15.02157071      15.02085796      15.02044439      15.02029966      15.02090169      15.02194392      15.02316122      15.02440027
        15.02497544      15.02407222      15.02255237      15.02027860      15.01836030      15.01724377      15.01686166      15.01684284      15.01658869      15.01652596      15.01641030      15.01654388      15.01713262      15.01777960      15.01875609      15.01996098      15.02072447      15.02106494      15.02123003      15.02096495
        15.26585648      15.26397227      15.26019098      15.25721226      15.25286820      15.24253406      15.22279554      15.20123994      15.18135575      15.16018143      15.14003494      15.12236153      15.10675694      15.09487449      15.08555945      15.07426288      15.06070311      15.04718060      15.03531235      15.02678527
        15.02051027      15.01612765      15.01336848      15.01184324      15.01097187      15.01041248      15.01018237      15.01019257      15.01037632      15.01064571      15.01082009      15.01095236      15.01094838      15.01076289      15.01058160      15.01069878      15.01090730      15.01129108      15.01194091      15.01274674
        15.01378942      15.01519799      15.01671989      15.01841207      15.02042229      15.02228196      15.02414996      15.02620733      15.02837392      15.03004448      15.03111844      15.03231657      15.03385472      15.03545797      15.03700003      15.03832692      15.03973270      15.04193014      15.04537373      15.04935296
        15.05367713      15.05879787      15.06411523      15.06870573      15.07150259      15.07151597      15.07020394      15.06815944      15.06421712      15.05928101      15.05463087      15.05042929      15.04702783      15.04513187      15.04428444      15.04410170      15.04491902      15.04606416      15.04751376      15.04932490
        15.05034499      15.04959312      15.04747933      15.04422210      15.04052714      15.03760944      15.03590383      15.03548160      15.03518813      15.03483416      15.03449108      15.03432674      15.03507727      15.03611420      15.03768025      15.03979293      15.04146046      15.04251082      15.04287533      15.04271908
        15.38097851      15.37946673      15.37395164      15.36970993      15.36480893      15.35359756      15.33087821      15.30128627      15.27306516      15.24516526      15.21707914      15.19225801      15.17039838      15.15097159      15.13544066      15.11896130      15.09876263      15.07842628      15.06006454      15.04544039
        15.03479899      15.02732567      15.02268972      15.01989714      15.01832418      15.01733622      15.01675067      15.01667482      15.01694423      15.01730849      15.01762594      15.01779438      15.01781454      15.01758584      15.01731150      15.01738010      15.01779949      15.01839642      15.01933246      15.02043763
        15.02173907      15.02353193      15.02557738      15.02782327      15.03040019      15.03318145      15.03599380      15.03874780      15.04132899      15.04334899      15.04487891      15.04647251      15.04844391      15.05074207      15.05308460      15.05517945      15.05749674      15.06093040      15.06586292      15.07197719
        15.07826484      15.08509354      15.09247020      15.09906552      15.10400527      15.10562670      15.10485391      15.10278232      15.09893345      15.09321094      15.08675591      15.08096801      15.07570682      15.07211504      15.07049237      15.07025100      15.07102665      15.07181479      15.07287081      15.07457449
        15.07576233      15.07545056      15.07328866      15.06980533      15.06496420      15.06039268      15.05728474      15.05589363      15.05544727      15.05494346      15.05437114      15.05394342      15.05449680      15.05568025      15.05754457      15.05989599      15.06219161      15.06378010      15.06434791      15.06457187
        15.48362513      15.48351167      15.47976200      15.47598100      15.46981169      15.45618998      15.43072960      15.39659352      15.36231820      15.33034657      15.29912851      15.26950305      15.24239678      15.21739893      15.19482497      15.17297389      15.14569798      15.11694930      15.09162167      15.06988630
        15.05329521      15.04179921      15.03458157      15.03017407      15.02758363      15.02605708      15.02507060      15.02470184      15.02484631      15.02527964      15.02579015      15.02594222      15.02587730      15.02566516      15.02541004      15.02537984      15.02585303      15.02666386      15.02767261      15.02891172
        15.03042360      15.03240675      15.03483307      15.03741928      15.04041511      15.04394686      15.04752323      15.05061052      15.05332803      15.05562826      15.05756557      15.05953543      15.06194464      15.06492164      15.06806788      15.07100376      15.07449705      15.07925020      15.08526633      15.09265425
        15.10088747      15.10980690      15.11912075      15.12796709      15.13505977      15.13910914      15.13992887      15.13891044      15.13591060      15.13017398      15.12212473      15.11436591      15.10723110      15.10183444      15.09882205      15.09793474      15.09817450      15.09844876      15.09888788      15.09990274
        15.10102332      15.10094167      15.09919291      15.09568853      15.09061472      15.08500333      15.08087283      15.07819106      15.07708548      15.07678890      15.07658946      15.07639468      15.07669143      15.07757561      15.07885858      15.08075660      15.08314013      15.08502895      15.08598213      15.08653902
        15.57661100      15.57656478      15.57592045      15.57273193      15.56544626      15.54946759      15.52250302      15.48574802      15.44802148      15.41331929      15.38097755      15.34931530      15.31832379      15.29061861      15.26320685      15.23600773      15.20266825      15.16516828      15.13134607      15.10197950
        15.07763057      15.06041399      15.04973914      15.04310752      15.03909607      15.03681444      15.03546885      15.03476231      15.03463821      15.03494359      15.03555000      15.03568111      15.03538719      15.03512588      15.03492535      15.03485471      15.03526536      15.03609972      15.03707264      15.03823615
        15.03982720      15.04198689      15.04465218      15.04750452      15.05080579      15.05471298      15.05855258      15.06174338      15.06461438      15.06711694      15.06945733      15.07190006      15.07487422      15.07853842      15.08252510      15.08639812      15.09116416      15.09708189      15.10403130      15.11238250
        15.12221893      15.13308390      15.14455430      15.15580598      15.16560524      15.17207370      15.17533624      15.17640518      15.17511042      15.17047818      15.16181687      15.15186018      15.14255276      15.13492948      15.12983578      15.12734631      15.12664415      15.12629232      15.12610343      15.12627710
        15.12680002      15.12698812      15.12600692      15.12304115      15.11811350      15.11235502      15.10703350      15.10306718      15.10093820      15.10072380      15.10119843      15.10154716      15.10179346      15.10214800      15.10233443      15.10322576      15.10507899      15.10716303      15.10862805      15.10910409
        15.65742293      15.65749022      15.65780889      15.65462989      15.64616785      15.62932504      15.60335687      15.56761851      15.52859531      15.49110091      15.45706236      15.42544257      15.39298816      15.36355435      15.33530390      15.30447055      15.26714799      15.22332909      15.18090249      15.14325839
        15.11034507      15.08503524      15.06925873      15.05963940      15.05367322      15.05025857      15.04847700      15.04752228      15.04715743      15.04717155      15.04764916      15.04762961      15.04693986      15.04642390      15.04611536      15.04596697      15.04637289      15.04718192      15.04814066      15.04916959
        15.05066567      15.05278674      15.05549905      15.05859635      15.06204298      15.06592185      15.06948142      15.07269299      15.07555472      15.07819475      15.08105369      15.08407840      15.08759105      15.09178421      15.09643364      15.10141197      15.10747311      15.11481703      15.12292127      15.13208971
        15.14277343      15.15517482      15.16875821      15.18288055      15.19579134      15.20577888      15.21250549      15.21659679      15.21813464      15.21539756      15.20729288      15.19470515      15.18266829      15.17269811      15.16495046      15.15979982      15.15763530      15.15671421      15.15594460      15.15545440
        15.15499897      15.15492722      15.15479050      15.15323097      15.14891278      15.14309754      15.13654816      15.13097678      15.12738879      15.12670202      15.12756865      15.12855725      15.12904139      15.12902583      15.12861747      15.12824926      15.12889980      15.13078458      15.13251582      15.13315438
        15.72683932      15.72707394      15.72681597      15.72284316      15.71383824      15.69753266      15.67170000      15.63796257      15.60010496      15.56149531      15.52508161      15.49325868      15.46252254      15.43205617      15.40457571      15.37405407      15.33546451      15.28867892      15.24011966      15.19437860
        15.15288503      15.11827610      15.09493186      15.08090794      15.07234178      15.06724593      15.06451769      15.06321027      15.06274329      15.06263958      15.06273048      15.06230438      15.06112936      15.05992962      15.05936023      15.05903262      15.05932740      15.06007493      15.06101222      15.06201538
        15.06327948      15.06503975      15.06752242      15.07059718      15.07411975      15.07770914      15.08088354      15.08391198      15.08661565      15.08945623      15.09255583      15.09599946      15.09989339      15.10450328      15.10960430      15.11563688      15.12312138      15.13179368      15.14096671      15.15085630
        15.16219352      15.17570315      15.19105913      15.20785658      15.22415942      15.23924224      15.25060545      15.25884880      15.26458274      15.26475801      15.25831680      15.24450288      15.22796633      15.21463109      15.20398888      15.19589384      15.19139804      15.18967029      15.18830307      15.18714016
        15.18579613      15.18530931      15.18571778      15.18541185      15.18281982      15.17706137      15.16970638      15.16232207      15.15685489      15.15476097      15.15547265      15.15695218      15.15787161      15.15786453      15.15732279      15.15604972      15.15532385      15.15608312      15.15783033      15.15877663
        15.78889719      15.78787057      15.78597831      15.78075259      15.77152716      15.75561648      15.72965405      15.69601891      15.65932126      15.62224137      15.58579681      15.55271813      15.52396572      15.49441528      15.46685118      15.43842919      15.40227036      15.35588530      15.30494688      15.25422133
        15.20532542      15.16149102      15.12861268      15.10824488      15.09567890      15.08832846      15.08390681      15.08170946      15.08114148      15.08110868      15.08074241      15.07992609      15.07830049      15.07632679      15.07529346      15.07464151      15.07444553      15.07480236      15.07551134      15.07638956
        15.07731744      15.07862226      15.08055228      15.08323435      15.08664041      15.08991766      15.09276970      15.09538970      15.09802283      15.10088250      15.10395863      15.10756401      15.11178860      15.11675841      15.12228850      15.12917951      15.13769908      15.14719575      15.15701065      15.16753542
        15.17963391      15.19415910      15.21118521      15.23037942      15.25058755      15.27037703      15.28711436      15.30064082      15.31195285      15.31725827      15.31419989      15.30202052      15.28153078      15.26226046      15.24769015      15.23611121      15.22843943      15.22462015      15.22249409      15.22015851
        15.21831539      15.21803687      15.21878043      15.21889336      15.21725216      15.21260574      15.20536864      15.19714338      15.19035105      15.18630376      15.18619075      15.18764437      15.18876553      15.18869247      15.18757019      15.18564199      15.18404777      15.18318883      15.18424453      15.18535411
        15.84344757      15.84133690      15.83771148      15.83132891      15.82150698      15.80489459      15.77946300      15.74540838      15.70866945      15.67282393      15.63862350      15.60586208      15.57721918      15.54946751      15.52195080      15.49480280      15.46255546      15.42023661      15.37001293      15.31766192
        15.26494027      15.21362172      15.17119980      15.14250318      15.12427988      15.11347014      15.10695500      15.10315950      15.10189029      15.10177456      15.10132633      15.10048111      15.09890193      15.09658677      15.09475512      15.09379458      15.09286328      15.09230815      15.09221089      15.09259530
        15.09306306      15.09366452      15.09493078      15.09693078      15.09987499      15.10270831      15.10504780      15.10731527      15.10988285      15.11260281      15.11573489      15.11933765      15.12382050      15.12913970      15.13509856      15.14252187      15.15138613      15.16102008      15.17109288      15.18227542
        15.19526734      15.21081557      15.22956468      15.25126857      15.27513914      15.29910095      15.32105578      15.34089174      15.35885289      15.37096824      15.37297843      15.36442613      15.34384335      15.31784994      15.29694533      15.28110358      15.26961132      15.26256107      15.25867066      15.25483669
        15.25255249      15.25229408      15.25279596      15.25285673      15.25115557      15.24771662      15.24165331      15.23396951      15.22645687      15.22127626      15.21982701      15.22099563      15.22157467      15.22096632      15.21898492      15.21632928      15.21376014      15.21148913      15.21088624      15.21138682
        15.89270455      15.88993478      15.88560801      15.87834233      15.86680053      15.84942386      15.82458036      15.79113940      15.75403294      15.71813846      15.68613135      15.65606766      15.62698329      15.59985702      15.57266294      15.54566645      15.51611715      15.47955560      15.43361883      15.38249154
        15.32878097      15.27295121      15.22223750      15.18415752      15.15880356      15.14292548      15.13366061      15.12776018      15.12510765      15.12451400      15.12430721      15.12372882      15.12256604      15.12023269      15.11774846      15.11641211      15.11493466      15.11312894      15.11172933      15.11110121
        15.11066251      15.11026441      15.11068932      15.11186264      15.11382291      15.11583846      15.11759372      15.11970761      15.12213530      15.12472955      15.12778235      15.13142535      15.13608482      15.14178038      15.14825151      15.15585219      15.16449379      15.17382744      15.18420757      15.19600125
        15.20971753      15.22615581      15.24649340      15.27101572      15.29833644      15.32630969      15.35339174      15.37982164      15.40502836      15.42484145      15.43346576      15.43014787      15.41241127      15.38243929      15.35372218      15.33217117      15.31600932      15.30467637      15.29794371      15.29280442
        15.28925907      15.28803748      15.28768885      15.28729488      15.28594725      15.28299476      15.27837729      15.27198593      15.26431060      15.25841546      15.25575973      15.25599001      15.25596895      15.25471726      15.25238667      15.24932992      15.24540844      15.24153692      15.23884443      15.23750533
        15.93655010      15.93347457      15.92881931      15.92089684      15.90789290      15.88952915      15.86480009      15.83335838      15.79763431      15.76176423      15.73062554      15.70422970      15.67692194      15.64912917      15.62115632      15.59305658      15.56393761      15.53138554      15.49095261      15.44383311
        15.39232864      15.33526785      15.27894391      15.23219123      15.19849590      15.17636709      15.16308982      15.15493610      15.15038503      15.14897794      15.14880150      15.14849392      15.14761810      15.14572540      15.14311008      15.14114227      15.13946155      15.13691697      15.13417539      15.13210544
        15.13033042      15.12882261      15.12769058      15.12761898      15.12821785      15.12916373      15.13055509      15.13241893      15.13461781      15.13709182      15.13988243      15.14358612      15.14856268      15.15472067      15.16171352      15.16933134      15.17761036      15.18664370      15.19720805      15.20954768
        15.22387544      15.24088397      15.26269680      15.28967059      15.32023675      15.35238089      15.38480193      15.41790312      15.45040006      15.47816786      15.49641070      15.49876082      15.48456534      15.45413289      15.41911514      15.39035222      15.36883102      15.35220439      15.34118170      15.33444003
        15.32913285      15.32599078      15.32436091      15.32291328      15.32172229      15.31942167      15.31618552      15.31082114      15.30395040      15.29713590      15.29319118      15.29196843      15.29143504      15.29000061      15.28755106      15.28409440      15.27930168      15.27397455      15.26950058      15.26695580
        15.97335526      15.97099805      15.96619077      15.95823411      15.94521214      15.92637125      15.90106892      15.87072791      15.83822965      15.80505727      15.77504586      15.75111855      15.72764847      15.70054978      15.67110445      15.64015913      15.60916440      15.57698142      15.54061945      15.49755983
        15.44971471      15.39467384      15.33667243      15.28415225      15.24259009      15.21322257      15.19480822      15.18352746      15.17678164      15.17402883      15.17345547      15.17336804      15.17287465      15.17180992      15.16978546      15.16751245      15.16550950      15.16275084      15.15919363      15.15556281
        15.15246842      15.14953319      15.14647739      15.14443935      15.14342377      15.14332488      15.14423266      15.14554545      15.14731571      15.14967634      15.15235301      15.15617727      15.16163200      15.16817037      15.17533679      15.18278391      15.19072056      15.19963059      15.21033695      15.22302460
        15.23773510      15.25516551      15.27783235      15.30628201      15.33961965      15.37637383      15.41409253      15.45342166      15.49283267      15.52947871      15.55859079      15.56829264      15.55763862      15.52883102      15.49011487      15.45362726      15.42599976      15.40454651      15.38843277      15.37837902
        15.37114338      15.36517985      15.36147235      15.35891372      15.35688880      15.35498618      15.35262016      15.34812553      15.34250813      15.33538535      15.32985855      15.32697024      15.32570173      15.32422051      15.32157566      15.31765971      15.31284284      15.30719289      15.30166135      15.29885810
        16.00443117      16.00320470      15.99914388      15.99185638      15.97974196      15.96184756      15.93726845      15.90739219      15.87792227      15.84995158      15.82350870      15.80179271      15.78211264      15.75693198      15.72661051      15.69257588      15.65767055      15.62255533      15.58659985      15.54597256
        15.50066517      15.44844173      15.39103182      15.33610641      15.28866337      15.25244524      15.22844252      15.21275464      15.20327005      15.19871755      15.19747374      15.19759027      15.19766594      15.19753206      15.19652131      15.19442938      15.19191779      15.18883296      15.18507911      15.18049025
        15.17629305      15.17207051      15.16718744      15.16282509      15.15976678      15.15847863      15.15854020      15.15919580      15.16047516      15.16264185      15.16557010      15.16972331      15.17541250      15.18198802      15.18894290      15.19602712      15.20376797      15.21260469      15.22326059      15.23617489
        15.25105132      15.26883540      15.29179321      15.32106792      15.35673889      15.39781451      15.44125451      15.48650343      15.53229673      15.57780844      15.61697304      15.63635600      15.63016682      15.60439289      15.56433006      15.52163511      15.48664227      15.46007703      15.43914128      15.42450480
        15.41455822      15.40596905      15.39972928      15.39548732      15.39169174      15.38888442      15.38662236      15.38319724      15.37846563      15.37186124      15.36509473      15.36059471      15.35803639      15.35593213      15.35343503      15.34975410      15.34515036      15.34001468      15.33490360      15.33190938
        16.03132224      16.03086408      16.02833679      16.02227306      16.01172240      15.99583996      15.97422938      15.94724198      15.92111158      15.89930453      15.87911165      15.86052283      15.84269661      15.82035190      15.79002183      15.75302573      15.71322152      15.67364649      15.63412965      15.59300727
        15.54769302      15.49728806      15.44089041      15.38512123      15.33448914      15.29264341      15.26293891      15.24259704      15.22960009      15.22268816      15.22032825      15.22035846      15.22106811      15.22175591      15.22162947      15.21983104      15.21726049      15.21404148      15.21022155      15.20565928
        15.20068055      15.19556323      15.18942931      15.18290010      15.17749999      15.17445990      15.17329723      15.17329723      15.17426157      15.17622771      15.17945359      15.18387401      15.18951773      15.19606482      15.20273199      15.20939117      15.21665247      15.22528145      15.23573410      15.24870968
        15.26393278      15.28218198      15.30553882      15.33558468      15.37294255      15.41723201      15.46569316      15.51669156      15.56911427      15.62214331      15.67067941      15.70016477      15.70078692      15.67881314      15.64037840      15.59445481      15.55141182      15.51765129      15.49122274      15.47222963
        15.45884868      15.44817568      15.43953010      15.43323653      15.42775964      15.42293142      15.41949167      15.41681344      15.41218213      15.40589592      15.39867591      15.39288456      15.38881886      15.38556150      15.38322494      15.38045774      15.37666156      15.37235416      15.36843357      15.36570623
        16.05479875      16.05495430      16.05379189      16.04963618      16.04112141      16.02794582      16.01052201      15.98913498      15.96811641      15.95246452      15.93885881      15.92444096      15.90743499      15.88709364      15.85867013      15.82040678      15.77507359      15.73078014      15.68648905      15.64216660
        15.59464089      15.54324020      15.48771835      15.43097042      15.37839369      15.33296769      15.29798622      15.27300763      15.25641218      15.24664985      15.24230871      15.24147842      15.24239727      15.24371041      15.24425601      15.24309380      15.24077986      15.23791313      15.23438319      15.23037128
        15.22522743      15.21932026      15.21251525      15.20449860      15.19700306      15.19192444      15.18930189      15.18844970      15.18904522      15.19078040      15.19389584      15.19829671      15.20388182      15.21020415      15.21653070      15.22273331      15.22951689      15.23777348      15.24809987      15.26127821
        15.27691220      15.29577826      15.31980538      15.35039947      15.38883248      15.43536035      15.48734308      15.54328468      15.60193172      15.66182933      15.71761947      15.75709727      15.76841215      15.75223502      15.71662777      15.66865192      15.61791284      15.57613300      15.54351364      15.52005141
        15.50294021      15.49028429      15.47983467      15.47171209      15.46479534      15.45796842      15.45224625      15.44823955      15.44334231      15.43680220      15.42939007      15.42294390      15.41796288      15.41391094      15.41104516      15.40915508      15.40701576      15.40388022      15.40071614      15.39870547
        16.07508926      16.07558479      16.07523531      16.07280429      16.06682685      16.05697608      16.04367194      16.02829482      16.01292218      16.00163947      15.99225326      15.98165564      15.96739474      15.94904059      15.92420529      15.88894397      15.84127359      15.79055134      15.74208143      15.69402913
        15.64425235      15.58957760      15.53299121      15.47591592      15.42164322      15.37363998      15.33401614      15.30420406      15.28398855      15.27143101      15.26443813      15.26199160      15.26235936      15.26365343      15.26472249      15.26446484      15.26277366      15.26046450      15.25765087      15.25401569
        15.24911026      15.24277732      15.23580179      15.22731265      15.21853717      15.21139988      15.20709570      15.20517641      15.20504896      15.20622729      15.20886912      15.21293542      15.21825618      15.22415350      15.23003960      15.23597371      15.24268289      15.25077911      15.26130034      15.27457990
        15.29036969      15.30950195      15.33412204      15.36586065      15.40492983      15.45211006      15.50673526      15.56691979      15.63073249      15.69614345      15.75872726      15.80806712      15.83016764      15.82276368      15.79168129      15.74384145      15.68770144      15.63647316      15.59702753      15.56773388
        15.54676046      15.53178713      15.52006496      15.51040180      15.50195156      15.49351129      15.48540390      15.47826776      15.47215255      15.46539231      15.45737742      15.45031575      15.44519164      15.44119325      15.43792210      15.43643013      15.43549078      15.43382196      15.43157642      15.43017739
        16.09278494      16.09324880      16.09325697      16.09180778      16.08812831      16.08159987      16.07209853      16.06130508      16.05062571      16.04218506      16.03529600      16.02734121      16.01631009      16.00078924      15.98059374      15.95107197      15.90723704      15.85269257      15.79930121      15.74766181
        15.69548507      15.63871154      15.57928758      15.52079048      15.46529855      15.41570649      15.37224865      15.33699717      15.31225383      15.29705009      15.28770077      15.28315891      15.28220310      15.28277903      15.28378542      15.28415920      15.28348661      15.28201582      15.27976488      15.27620351