# File generated by Flopy version 3.7.0 on 06/05/2024 at 14:48:00.
BEGIN options
END options

BEGIN griddata
  strt
    INTERNAL  FACTOR  1.0
        15.00000000      15.00000000      15.00000000      15.00000000      15.00000000      15.00000000      15.00000000      15.00000000      15.00000000      15.00000000      15.00000000      15.00000000      15.00000000      15.00000000      15.00000000      15.00000000      15.00000000      15.00000000      15.00000000      15.00000000
        15.00000000      15.00000000      15.00000000      15.00000000      15.00000000      15.00000000      15.00000000      15.00000000      15.00000000      15.00000000      15.00000000      15.00000000      15.00000000      15.00000000      15.00000000      15.00000000      15.00000000      15.00000000      15.00000000      15.00000000
        15.00000000      15.00000000      15.00000000      15.00000000      15.00000000      15.00000000      15.00000000      15.00000000      15.00000000      15.00000000      15.00000000      15.00000000      15.00000000      15.00000000      15.00000000      15.00000000      15.00000000      15.00000000      15.00000000      15.00000000
        15.00000000      15.00000000      15.00000000      15.00000000      15.00000000      15.00000000      15.00000000      15.00000000      15.00000000      15.00000000      15.00000000      15.00000000      15.00000000      15.00000000      15.00000000      15.00000000      15.00000000      15.00000000      15.00000000      15.00000000
        15.00000000      15.00000000      15.00000000      15.00000000      15.00000000      15.00000000      15.00000000      15.00000000      15.00000000      15.00000000      15.00000000      15.00000000      15.00000000      15.00000000      15.00000000      15.00000000      15.00000000      15.00000000      15.00000000      15.00000000
        15.04137269      15.04653211      15.05980885      15.07870458      15.11821789      15.14285712      15.14355406      15.11241964      15.08955595      15.05308901      15.03358755      15.02331520      15.01710329      15.01786624      15.01742582      15.01449573      15.00727171      15.00401941      15.00344951      15.00253562
        15.00225073      15.00271764      15.00370510      15.00491086      15.00677506      15.00802610      15.00822124      15.00821119      15.00975102      15.01368203      15.01768767      15.02335085      15.02982015      15.03581363      15.03678289      15.04271409      15.05328053      15.06477401      15.07824805      15.09074987
        15.08108108      15.04665146      15.02078498      15.01378883      15.01681587      15.02114663      15.02773699      15.03080408      15.02948730      15.02792423      15.02759902      15.02850423      15.02923442      15.03320494      15.03896634      15.04607942      15.04850317      15.05102996      15.05368571      15.05802656
        15.06034995      15.05939153      15.07060728      15.09121210      15.10160544      15.08100728      15.06012771      15.03715807      15.03403762      15.04070252      15.04364665      15.05324023      15.05485708      15.05764532      15.06150340      15.05682935      15.05979991      15.04514513      15.02337183      15.01691203
        15.01835062      15.01969691      15.02494289      15.03380451      15.04556046      15.05632001      15.06653856      15.06975477      15.08680364      15.08559436      15.07509397      15.07522174      15.08369920      15.09379900      15.08789697      15.08331732      15.10113626      15.11334276      15.13122795      15.15122607
        15.08764180      15.09922831      15.11742787      15.14231698      15.17788262      15.21065414      15.22688642      15.20378738      15.16801400      15.11990524      15.07477061      15.05132508      15.03405834      15.02885882      15.02740581      15.02421132      15.01577227      15.00928817      15.00796877      15.00684521
        15.00575230      15.00589491      15.00759678      15.00908504      15.01101066      15.01396581      15.01614622      15.01816718      15.02144758      15.02642996      15.03044629      15.03852476      15.04861335      15.05788283      15.06270267      15.06903298      15.08185877      15.09663325      15.11559904      15.13682220
        15.13152642      15.08770731      15.04597950      15.03062459      15.03225381      15.03670809      15.04254509      15.04853061      15.05180129      15.05024049      15.04940983      15.05139797      15.05145706      15.05491987      15.06208921      15.07216133      15.08340796      15.08971713      15.10052390      15.10702127
        15.11183086      15.11719122      15.12766612      15.15008342      15.16932072      15.15898073      15.13244797      15.09339167      15.06757672      15.07375728      15.08345982      15.09256770      15.09857377      15.10731536      15.11701810      15.11542005      15.10708630      15.09241647      15.05908815      15.04268767
        15.04199781      15.04477743      15.04889786      15.06243394      15.07881880      15.09802911      15.11616072      15.12434692      15.14330745      15.15314097      15.15026516      15.14968751      15.15714706      15.16567205      15.17139567      15.17147754      15.18833597      15.21281223      15.22730374      15.25091829
        15.13265866      15.14308547      15.16322312      15.18977548      15.21412512      15.24253099      15.26128952      15.25485839      15.22590312      15.17981915      15.11619975      15.07496142      15.04902601      15.03585898      15.03188694      15.02897952      15.02276035      15.01541470      15.01278370      15.01207025
        15.01079773      15.01043727      15.01214796      15.01410976      15.01627191      15.01981254      15.02446225      15.02935500      15.03343698      15.03730453      15.04296915      15.05081493      15.06241025      15.07260922      15.08141344      15.08872459      15.10006484      15.11311856      15.13286846      15.15518779
        15.16094934      15.12006178      15.07167976      15.05134108      15.04644429      15.05001883      15.05483559      15.06229352      15.06854062      15.06919614      15.06684643      15.06886871      15.06841448      15.07140182      15.07833022      15.08926610      15.10249211      15.11502756      15.13282315      15.14399699
        15.15115054      15.16077208      15.17167425      15.18949007      15.20817405      15.21375532      15.19227272      15.15834981      15.11044251      15.10652851      15.11947769      15.12391930      15.13644860      15.15022616      15.16461119      15.17397989      15.16097777      15.14063952      15.10940301      15.08346142
        15.07202354      15.07437978      15.07590939      15.08950746      15.10754226      15.12818385      15.14583786      15.15912308      15.17426267      15.19460145      15.20898079      15.21623707      15.22220507      15.22921355      15.24001752      15.24552412      15.25855227      15.28376991      15.30350954      15.32305711
        15.18116619      15.18476156      15.20478088      15.22642769      15.24379473      15.26612556      15.28185095      15.28353666      15.26622947      15.22914444      15.15929429      15.09197976      15.06018951      15.04073893      15.03373067      15.03038452      15.02598330      15.02029146      15.01670821      15.01596458
        15.01558626      15.01586545      15.01738958      15.02024576      15.02268086      15.02646207      15.03286846      15.03900479      15.04394018      15.04856052      15.05443465      15.06139847      15.07319327      15.08501758      15.09569878      15.10379574      15.11394339      15.12330681      15.13955635      15.16107599
        15.17282339      15.14435931      15.09993614      15.07260789      15.06234851      15.06404471      15.06850000      15.07508889      15.08115375      15.08289266      15.08134525      15.08113742      15.08268077      15.08589461      15.09163358      15.10165766      15.11335649      15.13046494      15.15456971      15.17237437
        15.18420211      15.19706561      15.21087174      15.22556183      15.24009715      15.25216917      15.24201041      15.21837216      15.16697411      15.14323861      15.14983021      15.15748997      15.17428709      15.19140665      15.20629413      15.22099094      15.21692932      15.19036276      15.15807693      15.12943734
        15.11060525      15.10581912      15.10734681      15.11838011      15.13487034      15.15264892      15.16758114      15.18146451      15.19830120      15.22308480      15.24812054      15.26500952      15.27424224      15.28393400      15.29140109      15.30076127      15.31184276      15.33424386      15.35518179      15.37066890
        15.23562555      15.23571600      15.24299549      15.25714591      15.27093662      15.28541640      15.29532741      15.29956954      15.29009146      15.26168299      15.19686416      15.11003671      15.06366741      15.04407856      15.03499228      15.02981940      15.02572769      15.02189241      15.01882658      15.01774722
        15.01836651      15.02020697      15.02263869      15.02582018      15.02909040      15.03363235      15.04040117      15.04693417      15.05336459      15.05896084      15.06461843      15.07201599      15.08333696      15.09478611      15.10482717      15.11422849      15.12307819      15.13153089      15.14614488      15.16548853
        15.18093134      15.16235091      15.12706612      15.09604310      15.08206117      15.08057127      15.08294064      15.08901799      15.09322985      15.09443632      15.09399326      15.09228402      15.09458720      15.09733737      15.10233840      15.11045775      15.12158170      15.13690298      15.16424128      15.19243350
        15.20899505      15.22524004      15.24138239      15.25556104      15.26684728      15.27896651      15.28225494      15.26863995      15.22555203      15.18466690      15.18311630      15.19586160      15.21184049      15.23104022      15.24486771      15.25806188      15.26489925      15.24649452      15.20637729      15.17295463
        15.15629951      15.14350571      15.14104118      15.14603704      15.15815500      15.17326892      15.18563296      15.19990077      15.21792370      15.24236855      15.26963657      15.29463566      15.31152295      15.32369782      15.33247859      15.34365016      15.35879922      15.37607317      15.39090038      15.40068694
        15.28068058      15.28272964      15.27621508      15.28119221      15.29056427      15.29728495      15.30370059      15.30741574      15.30411130      15.28542227      15.23549088      15.14165618      15.06660880      15.04452263      15.03474572      15.02803576      15.02365785      15.02024040      15.01787199      15.01701773
        15.01809943      15.02162891      15.02634103      15.03047188      15.03455135      15.04088206      15.04808274      15.05541277      15.06307009      15.06950155      15.07594934      15.08387880      15.09377011      15.10327241      15.11201456      15.12256572      15.13132904      15.14115920      15.15479547      15.17136370
        15.18795794      15.17764938      15.14851355      15.12352382      15.10345959      15.09721405      15.09772537      15.10287348      15.10516254      15.10557170      15.10554418      15.10405313      15.10425906      15.10595203      15.11005935      15.11617778      15.12615568      15.13822498      15.16157305      15.20137608
        15.22656948      15.24544948      15.26550573      15.28140639      15.29269470      15.30330043      15.31147745      15.30736616      15.27819800      15.23072015      15.22439260      15.23271022      15.24669585      15.26517318      15.27777898      15.28745631      15.29793366      15.29493051      15.25701512      15.21683932
        15.19878907      15.18689952      15.17894524      15.17605570      15.18424470      15.19581743      15.20680795      15.22031792      15.23866532      15.26139032      15.28759440      15.31806411      15.34107262      15.35441427      15.36735791      15.38112943      15.39596829      15.40850951      15.41853820      15.42215835
        15.32000204      15.32188162      15.31425303      15.30297109      15.30417134      15.30602065      15.30849028      15.30984386      15.30876707      15.29732810      15.26096647      15.17228040      15.07624747      15.04418659      15.03276228      15.02530949      15.02041730      15.01681523      15.01430414      15.01297572
        15.01349175      15.01826823      15.02683622      15.03412667      15.03930707      15.04697603      15.05557497      15.06451149      15.07285718      15.08032036      15.08709655      15.09493091      15.10311002      15.11104229      15.11962745      15.13030671      15.13905060      15.14937537      15.16179934      15.17810511
        15.19338466      15.19103876      15.16336488      15.14503399      15.12485963      15.11299934      15.11176909      15.11422593      15.11578204      15.11535197      15.11542283      15.11489243      15.11372560      15.11332452      15.11632963      15.12083258      15.12791167      15.13555870      15.14685589      15.19076844
        15.23619160      15.26378513      15.28951561      15.30773178      15.31964071      15.32854210      15.33630484      15.33833176      15.32457537      15.28522413      15.26727675      15.27022278      15.27967545      15.29196455      15.30258426      15.31041074      15.32282087      15.32907052      15.30362923      15.25802463
        15.23380124      15.22562127      15.21887666      15.21021449      15.21295736      15.22017309      15.23002288      15.24206943      15.26126315      15.28095695      15.30556964      15.33789020      15.36487133      15.38136446      15.39618887      15.41077654      15.42170544      15.43294128      15.43992452      15.44322601
        15.34866173      15.34773345      15.34350946      15.32382467      15.31345975      15.31100910      15.30991355      15.30910269      15.30785461      15.30077078      15.27340506      15.19722029      15.09338066      15.04309325      15.02935428      15.02163740      15.01645286      15.01228019      15.00837942      15.00497273
        15.00378211      15.00822214      15.02102326      15.03534157      15.04452500      15.05269637      15.06236716      15.07298913      15.08315086      15.09038401      15.09672080      15.10419989      15.11165848      15.11864743      15.12728323      15.13750776      15.14667713      15.15656731      15.16809125      15.18434583
        15.19928180      15.20327165      15.18131804      15.16039229      15.14389873      15.12870308      15.12401936      15.12465664      15.12606984      15.12537345      15.12430123      15.12421850      15.12350592      15.12203711      15.12286971      15.12544529      15.12825531      15.12947049      15.12990841      15.15544536
        15.22354900      15.27167362      15.30465854      15.33029972      15.34474000      15.35350248      15.36250421      15.36555848      15.36072602      15.33749468      15.31381480      15.31082057      15.31106096      15.31627502      15.32553274      15.33485903      15.34715259      15.35612352      15.34227559      15.29942151
        15.27001555      15.26032337      15.25747193      15.24762155      15.24225178      15.24666769      15.25483012      15.26524033      15.28369558      15.30206095      15.32617982      15.35663344      15.38283637      15.40232665      15.41784475      15.43066338      15.44069471      15.45008036      15.45675508      15.46249280
        15.35660720      15.35816020      15.35558216      15.33903297      15.31850705      15.31236203      15.30917878      15.30647432      15.30452832      15.30043582      15.28336570      15.21579276      15.10815239      15.04478927      15.02559890      15.01791349      15.01264595      15.00694643      14.99844273      14.99074077
        14.98987425      14.99523108      15.00904802      15.03106790      15.04817416      15.05849911      15.06895602      15.08178132      15.09290761      15.09981764      15.10641982      15.11304379      15.11992756      15.12712190      15.13569396      15.14585331      15.15468605      15.16403783      15.17408495      15.18757806
        15.20368527      15.21235878      15.19972300      15.17605754      15.15906735      15.14389873      15.13529717      15.13479064      15.13608142      15.13547526      15.13346878      15.13292815      15.13245299      15.13185821      15.12985277      15.12973946      15.12847574      15.12118432      15.10386163      15.09425302
        15.17764821      15.26374989      15.31021635      15.34738134      15.36761750      15.37866088      15.38855171      15.39289768      15.39154283      15.38074703      15.36144400      15.35044640      15.34228303      15.34179700      15.34968303      15.35927101      15.37046657      15.38358540      15.38121152      15.34944630
        15.31335336      15.29883062      15.29803554      15.29631359      15.28227017      15.28262039      15.28862197      15.29670607      15.31220116      15.33038651      15.35367253      15.37683087      15.39943524      15.41965976      15.43624857      15.44700590      15.45736066      15.46554050      15.47330752      15.47795135
        15.35259753      15.35560410      15.35661270      15.34548378      15.32395492      15.31226431      15.30688498      15.30304829      15.29990368      15.29649411      15.28274262      15.22604642      15.12432132      15.04990234      15.02342496      15.01528471      15.00948193      14.99990410      14.97882985      14.96906777
        14.96645380      14.94325748      14.94039634      14.96865338      14.98460412      14.99856279      15.02229379      15.04832927      15.06556362      15.07665600      15.08944617      15.10168686      15.11014639      15.11622254      15.12192729      15.12849038      15.13628913      15.14486490      15.15475316      15.16294718
        15.17142986      15.17965270      15.19012348      15.20612309      15.21863438      15.21524153      15.19499050      15.17473712      15.15845378      15.14675976      15.14380084      15.14481869      15.14468401      15.14244535      15.14055544      15.14026207      15.14013996      15.13721711      15.13372008      15.12921223
        15.11424211      15.06492816      15.02424931      15.00994345      14.97219954      14.94722935      15.09168564      15.24192587      15.31297007      15.35729049      15.38684993      15.40248975      15.41106792      15.41907369      15.41719826      15.41089606      15.40040480      15.38801892      15.37698468      15.37203870
        15.37586330      15.38349763      15.39445818      15.41013312      15.41483109      15.40034672      15.36688003      15.34550381      15.34383743      15.34953773      15.33444632      15.32807605      15.33020743      15.33666924      15.34603362      15.36273959      15.38324898      15.39853183      15.41736407      15.43633147
        15.45494746      15.46471720      15.47456425      15.48266487      15.49095302      15.49494412      15.34454896      15.34643633      15.35118051      15.34677560      15.33094947      15.31283236      15.30401851      15.29886933      15.29420916      15.28996629      15.27615636      15.22874865      15.13785064      15.05616065
        15.02370718      15.01427770      15.00782716      14.99529540      14.97280207      14.94640100      14.97205058      14.94534047      14.91581184      14.89307663      14.89871614      14.86486672      14.84335218      14.84498217      14.80807026      14.78372726      14.78429007      14.69355393      14.89468474      14.91412896
        14.85200890      14.87298902      14.80983992      14.83316936      14.78453658      14.82528284      14.86118825      14.90043985      14.90143673      14.85438330      14.81080619      14.78490213      14.83418624      14.82577905      14.87495147      14.86166887      14.91769627      14.89924129      14.80948347      14.83422512
        14.83431569      14.84684649      14.86583634      14.86557508      14.87988125      14.90231254      14.89993725      14.91598193      14.93912805      14.96101294      14.93904024      14.96093736      14.98123767      14.99634532      15.01674471      15.04603428      15.06979661      15.08345041      15.09545913      15.10916423
        15.11900905      15.12588006      15.13140780      15.13892890      15.14758461      15.15717457      15.16567656      15.17283631      15.17899409      15.18593599      15.19412966      15.20768625      15.22291939      15.22571913      15.21330266      15.19291335      15.17259463      15.15807139      15.15150433      15.15225973
        15.15281966      15.15088884      15.14741109      15.14702402      15.14687542      15.14507463      15.13952695      15.13331505      15.11996901      15.07085419      15.00795832      15.08102014      15.02466139      14.92186193      14.85558013      14.88945476      14.79633257      14.73814813      14.75283571      14.65630977
        14.59334080      14.60032240      14.37255972      14.84681048      14.88140765      14.75256252      14.79792186      14.65454356      14.70954844      14.59530052      14.69285641      14.77401832      14.85276201      14.91005794      14.78409899      14.67034659      14.60319413      14.73162440      14.70864199      14.84203884
        14.80548326      14.96313331      14.91556009      14.66116633      14.71955843      14.72652310      14.75459090      14.79458523      14.80921172      14.83797325      14.87522125      14.90880864      14.93498310      14.97969940      15.08707372      15.01358964      15.10485544      15.22877190      15.32250166      15.36715391
        15.40490544      15.42486001      15.43294455      15.44087112      15.44018564      15.43203338      15.42624396      15.41854929      15.41067813      15.40284385      15.40358444      15.40822633      15.41751437      15.43230921      15.43929394      15.43692889      15.41775920      15.39678679      15.39069951      15.39333309
        15.38637021      15.37427814      15.37226008      15.37800557      15.38435873      15.39502318      15.40930593      15.42071098      15.43587819      15.45510866      15.47449924      15.48687071      15.49558978      15.50316805      15.51225469      15.51820519      15.33598007      15.33631761      15.34172080      15.34431250
        15.33586793      15.31583437      15.30139256      15.29367675      15.28781069      15.28128697      15.26850243      15.22523757      15.14667347      15.06862411      15.02726052      15.01613672      15.01049932      15.00027068      14.97622000      14.94123276      14.93968397      14.96463866      14.96315482      14.96989602
        14.99116137      15.00262380      15.01770882      15.04433458      15.07050295      15.08703570      15.09910347      15.11314590      15.12583529      15.13431364      15.14048950      15.14959265      15.16043389      15.17043703      15.17722147      15.18235781      15.18648521      15.19195979      15.19832046      15.20995192
        15.22742901      15.23362896      15.22717925      15.21128365      15.19007413      15.16953274      15.16092808      15.16019211      15.16097394      15.15974317      15.15603036      15.15442986      15.15483269      15.15476111      15.15060061      15.14529938      15.14097924      15.11118028      15.03370995      15.02574377
        15.09723637      15.09716023      15.13662718      15.25262833      15.33868147      15.38306061      15.42015861      15.44370859      15.45131670      15.45647514      15.45877091      15.45119522      15.44553633      15.44198032      15.43754927      15.43026524      15.42838814      15.43088934      15.43860325      15.45143131
        15.45992135      15.46177709      15.45491581      15.43991886      15.43258615      15.42939888      15.42908745      15.41769007      15.41285680      15.41585654      15.41946797      15.42224409      15.42941561      15.43979332      15.45150491      15.47021984      15.49160109      15.50849527      15.51890067      15.52645525
        15.53453137      15.54222546      15.32907388      15.32794581      15.33068648      15.33780499      15.33485841      15.32004296      15.29894767      15.28627236      15.27883531      15.27179617      15.25847825      15.21542537      15.14628152      15.07988416      15.03492172      15.01993148      15.01499627      15.00868177
        14.99786460      14.98910916      14.99345490      15.00261293      15.00974232      15.02093586      15.04227806      15.06725502      15.08567661      15.09853747      15.11280190      15.12961394      15.14117795      15.14985849      15.15937814      15.17198604      15.18131352      15.18662007      15.19011911      15.19324047
        15.19688832      15.20262757      15.21232144      15.22958045      15.23777028      15.23412102      15.22208177      15.20401902      15.18171915      15.17016586      15.16795449      15.16800934      15.16734715      15.16526299      15.16288759      15.16331192      15.16442560      15.16527461      15.16456208      15.16667155
        15.17219523      15.17752829      15.21873583      15.28624843      15.35644838      15.39977024      15.43315768      15.46038535      15.46918341      15.47182989      15.47555010      15.46980149      15.46358881      15.46185192      15.45853601      15.45404694      15.44926682      15.45109656      15.45858433      15.46719593
        15.47663242      15.48060249      15.48052443      15.47237442      15.46477692      15.45894421      15.45831659      15.45178297      15.44515098      15.44578935      15.44739855      15.44552166      15.44733124      15.45537682      15.46528366      15.48264290      15.50731623      15.52920948      15.54239577      15.55172464
        15.55756729      15.56445697      15.32294658      15.32072932      15.32061590      15.32761714      15.32903087      15.32121651      15.29717837      15.27691505      15.26749274      15.26101581      15.24747431      15.21013767      15.14685126      15.08887202      15.04679890      15.02503790      15.01954123      15.01543626
        15.01009966      15.00597840      15.00636935      15.01087176      15.01629015      15.02353557      15.04044399      15.06132150      15.07889678      15.09344547      15.10958889      15.13017977      15.14774104      15.15919281      15.16881770      15.18095215      15.18920264      15.19331601      15.19638791      15.19843691
        15.20096840      15.20640116      15.21524973      15.23001271      15.23961186      15.23703316      15.22805525      15.21343737      15.19327171      15.17728499      15.17370866      15.17297743      15.17245229      15.17190671      15.17052095      15.17081987      15.17335626      15.18000126      15.18696337      15.19561050
        15.21095132      15.23452035      15.26632110      15.31315617      15.37189579      15.41362635      15.44482337      15.47516919      15.48791075      15.48920218      15.49191123      15.48713495      15.47874110      15.47736033      15.47510473      15.47298464      15.46885548      15.46966732      15.47561568      15.48153121
        15.49071078      15.49622251      15.49832869      15.49637172      15.48879578      15.48246685      15.47955486      15.47609296      15.46958149      15.46959699      15.47140610      15.46906712      15.46626051      15.47122114      15.48002939      15.49360429      15.52337663      15.55034654      15.56638705      15.57985600
        15.58475652      15.58747998      15.31724853      15.31476050      15.31320102      15.31626655      15.32017113      15.31734808      15.29536901      15.26756796      15.25527251      15.24841265      15.23589200      15.20532527      15.14756791      15.09232960      15.05697460      15.03168022      15.02363370      15.01961939
        15.01585568      15.01330612      15.01324873      15.01631652      15.02078217      15.02572975      15.03862881      15.05595125      15.07100362      15.08538126      15.10107876      15.12441493      15.15072935      15.16674626      15.17679480      15.18756459      15.19487789      15.19855203      15.20076770      15.20230322
        15.20498282      15.21011944      15.21831766      15.23187287      15.24113592      15.23870651      15.23063134      15.21768566      15.20021186      15.18381593      15.17791400      15.17675492      15.17605737      15.17578264      15.17604516      15.17733112      15.18175919      15.19195659      15.20946174      15.22508230
        15.24437050      15.27023446      15.29937074      15.33330917      15.38087195      15.42615056      15.45994936      15.49295233      15.50908872      15.50951843      15.50889915      15.50456596      15.49313463      15.48792063      15.48714462      15.48587798      15.48468514      15.48446971      15.48829592      15.49367094
        15.50057496      15.50768084      15.51226435      15.51379482      15.50910292      15.50215979      15.49820989      15.49399010      15.48862952      15.48687107      15.48883363      15.48903635      15.48543356      15.48812112      15.49508640      15.50547510      15.53250712      15.56884100      15.59415158      15.60969439
        15.61455726      15.61361129      15.31230373      15.31014653      15.30788941      15.30748752      15.31105208      15.31163539      15.29678659      15.26249334      15.24481653      15.23618132      15.22179331      15.19407166      15.14390339      15.09343752      15.06306741      15.03965392      15.02742729      15.02174947
        15.01715174      15.01433625      15.01388762      15.01741148      15.02248541      15.02702081      15.03517585      15.05034500      15.06532058      15.07745272      15.08942001      15.11290729      15.14795713      15.17142004      15.18338783      15.19326988      15.19936090      15.20248735      15.20378723      15.20499430