# File generated by Flopy version 3.6.0 on 09/13/2024 at 00:08:15.
BEGIN griddata
  strt
    INTERNAL  FACTOR  1.0
        15.00000000      15.00000000      15.00000000      15.00000000      15.00000000      15.00000000      15.00000000      15.00000000      15.00000000      15.00000000      15.00000000      15.00000000      15.00000000      15.00000000      15.00000000      15.00000000      15.00000000      15.00000000      15.00000000      15.00000000
        15.00000000      15.00000000      15.00000000      15.00000000      15.00000000      15.00000000      15.00000000      15.00000000      15.00000000      15.00000000      15.00000000      15.00000000      15.00000000      15.00000000      15.00000000      15.00000000      15.00000000      15.00000000      15.00000000      15.00000000
        15.00000000      15.00000000      15.00000000      15.00000000      15.00000000      15.00000000      15.00000000      15.00000000      15.00000000      15.00000000      15.00000000      15.00000000      15.00000000      15.00000000      15.00000000      15.00000000      15.00000000      15.00000000      15.00000000      15.00000000
        15.00000000      15.00000000      15.00000000      15.00000000      15.00000000      15.00000000      15.00000000      15.00000000      15.00000000      15.00000000      15.00000000      15.00000000      15.00000000      15.00000000      15.00000000      15.00000000      15.00000000      15.00000000      15.00000000      15.00000000
        15.00000000      15.00000000      15.00000000      15.00000000      15.00000000      15.00000000      15.00000000      15.00000000      15.00000000      15.00000000      15.00000000      15.00000000      15.00000000      15.00000000      15.00000000      15.00000000      15.00000000      15.00000000      15.00000000      15.00000000
        15.01625014      15.01585014      15.01558737      15.01603596      15.01736944      15.01892967      15.02070846      15.02285234      15.02467013      15.02616779      15.02658083      15.02704418      15.02778532      15.02783911      15.02824921      15.02960167      15.03066518      15.03194207      15.03351120      15.03500491
        15.03655312      15.03859962      15.03898736      15.03924843      15.03960194      15.03982591      15.04216950      15.04691170      15.05161413      15.05750070      15.06288442      15.06778074      15.07265106      15.07924386      15.08719503      15.09758901      15.11059050      15.12183433      15.13058716      15.13141389
        15.12363779      15.11276525      15.10335203      15.09920912      15.09839311      15.09467811      15.09114701      15.08974424      15.08842469      15.09002287      15.09160188      15.09232500      15.09617180      15.10139830      15.10695749      15.10932197      15.11048077      15.11295110      15.11360972      15.11482639
        15.11840683      15.11863467      15.11802434      15.12016653      15.12755437      15.13737432      15.14827069      15.16009701      15.17487270      15.18493527      15.19327122      15.20721223      15.22514523      15.23379072      15.23903949      15.23985005      15.23970817      15.23466475      15.22768880      15.22435441
        15.21195344      15.19531732      15.18946714      15.19305917      15.19501907      15.19274944      15.18467576      15.17703989      15.16991538      15.16658311      15.16751266      15.17020107      15.17495556      15.18023900      15.18576523      15.19490895      15.19605241      15.19244286      15.18869164      15.18343792
        15.03341548      15.03316163      15.03278914      15.03308680      15.03481646      15.03685521      15.03931456      15.04211556      15.04488985      15.04728204      15.04886206      15.05026990      15.05177182      15.05317074      15.05458413      15.05680515      15.05962819      15.06294669      15.06651789      15.07037219
        15.07382630      15.07624813      15.07706809      15.07685916      15.07773217      15.07944425      15.08329114      15.08981419      15.09686142      15.10512195      15.11468138      15.12359380      15.13310134      15.14546995      15.15951943      15.17524498      15.19600369      15.21619989      15.23351939      15.24015730
        15.23357162      15.21839322      15.20138363      15.19132350      15.18866367      15.18479919      15.17788056      15.17354646      15.17240446      15.17222168      15.17376146      15.17509897      15.17958670      15.18615732      15.19389586      15.19999130      15.20349714      15.20698460      15.21002381      15.21275202
        15.21853195      15.22354012      15.22492783      15.23077626      15.24125546      15.25667926      15.27338883      15.29284254      15.31672593      15.33770515      15.35419706      15.37190136      15.39366274      15.41010741      15.42222424      15.42503683      15.42601581      15.42421279      15.41990003      15.41496913
        15.40442123      15.38241792      15.36664064      15.36722251      15.36973250      15.37083740      15.36058314      15.34873708      15.33711599      15.32905232      15.32995883      15.33666749      15.34432583      15.35215366      15.36087615      15.37508596      15.37892458      15.37572158      15.37276822      15.36877505
        15.05068323      15.05083323      15.05060325      15.05070393      15.05201790      15.05384040      15.05642867      15.05941094      15.06299459      15.06604701      15.06885729      15.07138440      15.07380209      15.07646805      15.07927323      15.08237970      15.08704425      15.09301908      15.09926726      15.10556443
        15.11094202      15.11405761      15.11502928      15.11515046      15.11555548      15.11845313      15.12288044      15.13000608      15.13864662      15.14770706      15.15917802      15.17172150      15.18635930      15.20306755      15.22152228      15.24221853      15.26749894      15.29462546      15.31858960      15.33257083
        15.33219555      15.31785750      15.29904489      15.28347934      15.27620867      15.27098139      15.26301557      15.25533271      15.25165557      15.24978937      15.24978091      15.24985557      15.25247102      15.25835621      15.26603192      15.27445829      15.28030936      15.28486954      15.29037750      15.29666246
        15.30547368      15.31543312      15.32306504      15.33289226      15.34621150      15.36391310      15.38414605      15.40676484      15.43410455      15.46193699      15.48807888      15.51006214      15.52933978      15.54925037      15.56553714      15.57369671      15.57508881      15.57794799      15.57811885      15.57706665
        15.57026971      15.55276278      15.53254835      15.52737099      15.53041066      15.53254461      15.52561647      15.51273349      15.49897610      15.48668621      15.48344140      15.49275001      15.50283831      15.51371096      15.52500638      15.53866876      15.54821054      15.54822497      15.54560988      15.54400378
        15.06778471      15.06812161      15.06809905      15.06830706      15.06926217      15.07087635      15.07314661      15.07627762      15.07990618      15.08372163      15.08754210      15.09101909      15.09437238      15.09786616      15.10188676      15.10652368      15.11265379      15.12074414      15.12967655      15.13832228
        15.14542013      15.15005424      15.15247857      15.15384758      15.15439965      15.15751849      15.16212692      15.16903382      15.17821099      15.18778605      15.19985214      15.21486764      15.23304219      15.25285542      15.27461289      15.29931180      15.32758207      15.35945037      15.38857645      15.41029816
        15.41827166      15.40987637      15.39285728      15.37500587      15.36170013      15.35331979      15.34534004      15.33621516      15.32698925      15.32205726      15.31975461      15.31786279      15.31802835      15.32108290      15.32674774      15.33428468      15.34104120      15.34735648      15.35486800      15.36526205
        15.37883357      15.39457969      15.40981981      15.42545264      15.44219571      15.46163531      15.48308688      15.50773703      15.53485935      15.56571185      15.59814490      15.62503146      15.64465365      15.66511911      15.68342846      15.69546892      15.69970160      15.70448796      15.70922937      15.71076478
        15.70853483      15.69944024      15.68431589      15.67453839      15.67431069      15.67595419      15.67278370      15.66190097      15.64973230      15.63561444      15.62748952      15.63296157      15.64522795      15.65852109      15.67178686      15.68421646      15.69831023      15.70535354      15.70586808      15.70482502
        15.08493099      15.08501108      15.08492139      15.08538264      15.08607710      15.08769379      15.08988740      15.09310517      15.09667150      15.10088474      15.10518048      15.10942645      15.11328693      15.11725490      15.12204467      15.12812306      15.13580221      15.14539369      15.15625170      15.16715824
        15.17660222      15.18345722      15.18867016      15.19168321      15.19362199      15.19712247      15.20194209      15.20853581      15.21703557      15.22703459      15.23894324      15.25513656      15.27434567      15.29634292      15.32057724      15.34761437      15.37847565      15.41266741      15.44612584      15.47519621
        15.49293641      15.49528967      15.48232502      15.46363005      15.44578637      15.43338448      15.42379280      15.41395580      15.40066445      15.39002947      15.38381775      15.38051684      15.37801404      15.37728133      15.37854459      15.38287625      15.38816912      15.39442970      15.40311834      15.41693350
        15.43623724      15.45911631      15.48278277      15.50704461      15.52977886      15.55194038      15.57348271      15.59763658      15.62439787      15.65600274      15.69034917      15.72074032      15.74471014      15.76425646      15.78220625      15.79530374      15.80330156      15.80884907      15.81537966      15.82005214
        15.82246422      15.82127701      15.81401221      15.80601405      15.80366209      15.80427689      15.80315632      15.79555041      15.78634379      15.77406182      15.76209079      15.76202974      15.77424034      15.78845556      15.80274417      15.81605540      15.83257224      15.84734644      15.85277326      15.85316922
        15.10179842      15.10164900      15.10141545      15.10172601      15.10239953      15.10389136      15.10633887      15.10953602      15.11315940      15.11733307      15.12189692      15.12667643      15.13087566      15.13537861      15.14084241      15.14784554      15.15668015      15.16725399      15.17917902      15.19179405
        15.20378949      15.21395628      15.22231964      15.22773544      15.23200440      15.23648561      15.24194572      15.24867923      15.25633988      15.26643630      15.27851958      15.29487828      15.31412449      15.33693737      15.36210027      15.39034549      15.42190285      15.45633523      15.49243260      15.52886927
        15.55871272      15.57232163      15.56585206      15.54663933      15.52728833      15.51168251      15.49912956      15.48761619      15.47282240      15.45791723      15.44681173      15.43990691      15.43375366      15.42907418      15.42526887      15.42419625      15.42537580      15.42850673      15.43614539      15.45143356
        15.47676260      15.50854766      15.54309657      15.57683732      15.60794905      15.63361598      15.65632250      15.67903311      15.70627215      15.73721593      15.77121391      15.80291914      15.82999615      15.85055609      15.86660170      15.87984793      15.88959741      15.89629862      15.90308012      15.91021185
        15.91605212      15.92026843      15.91994167      15.91643639      15.91642173      15.91732394      15.91784621      15.91514308      15.90915875      15.90119189      15.89018143      15.88555790      15.89274515      15.90669085      15.92173777      15.93743248      15.95596268      15.97513042      15.98334433      15.98650072
        15.11770114      15.11739891      15.11729181      15.11725381      15.11797292      15.11937483      15.12186984      15.12495803      15.12847720      15.13255088      15.13730076      15.14237528      15.14707453      15.15218940      15.15833362      15.16572158      15.17506380      15.18614825      15.19867518      15.21245589
        15.22648671      15.24015236      15.25192342      15.26057261      15.26795535      15.27402020      15.28070004      15.28813702      15.29635765      15.30653671      15.31900657      15.33454199      15.35398791      15.37672538      15.40162525      15.42943809      15.45979820      15.49284544      15.52981002      15.57158453
        15.61188300      15.63801898      15.64067211      15.62437816      15.60382337      15.58630294      15.57164110      15.55817295      15.54271620      15.52700567      15.51277904      15.50028663      15.48912577      15.48011581      15.47092052      15.46199042      15.45605479      15.45262031      15.45465915      15.46783828
        15.49897171      15.54301926      15.59156192      15.63681895      15.67597780      15.70674390      15.73177698      15.75616167      15.78257243      15.81214723      15.84430402      15.87589099      15.90391820      15.92608788      15.94200745      15.95378806      15.96386019      15.97142442      15.97900452      15.98646384
        15.99386024      16.00088346      16.00724576      16.00940836      16.01184248      16.01424755      16.01649157      16.01916082      16.01812851      16.01536029      16.00944834      16.00283927      16.00456142      16.01643648      16.03166337      16.05063226      16.07287123      16.09271918      16.10273845      16.10715728
        15.13327406      15.13283643      15.13276399      15.13250777      15.13307031      15.13457549      15.13686040      15.13964365      15.14296952      15.14700004      15.15166224      15.15674830      15.16198916      15.16764919      15.17414252      15.18185114      15.19127857      15.20253505      15.21549401      15.23014195
        15.24580254      15.26243035      15.27747078      15.28980961      15.30013261      15.30869062      15.31722613      15.32615845      15.33615479      15.34674535      15.35947161      15.37440300      15.39375020      15.41577606      15.43941622      15.46523132      15.49345465      15.52418065      15.56090134      15.60474819
        15.65129797      15.68831104      15.70327630      15.69568464      15.67620135      15.65682833      15.64008703      15.62514002      15.60949674      15.59407672      15.57941352      15.56361006      15.54762786      15.53325312      15.51775442      15.49901719      15.48181921      15.46682649      15.45643444      15.46190991
        15.50098633      15.56254306      15.62913263      15.68911141      15.73698632      15.77310723      15.80080640      15.82730702      15.85355014      15.88230988      15.91221258      15.94126597      15.96777978      15.99096292      16.00778814      16.01847049      16.02857584      16.03663741      16.04467416      16.05318146
        16.06094865      16.06981000      16.07982803      16.08820945      16.09285510      16.09679485      16.10089289      16.10593857      16.11011977      16.11236430      16.11174336      16.10799276      16.10801028      16.11705508      16.13245232      16.15511098      16.18010895      16.19987542      16.21225158      16.21635248
        15.14853923      15.14843212      15.14833962      15.14803393      15.14832858      15.14967040      15.15175702      15.15423084      15.15727487      15.16102759      15.16550945      15.17045611      15.17596854      15.18195571      15.18858693      15.19641957      15.20564413      15.21681618      15.23010617      15.24529520
        15.26247954      15.28114442      15.29893173      15.31466877      15.32809110      15.34003393      15.35118126      15.36207855      15.37355840      15.38512728      15.39795351      15.41275274      15.43100285      15.45193042      15.47404889      15.49765682      15.52351795      15.55260543      15.58872624      15.63237866
        15.68173934      15.72579133      15.75304628      15.75684354      15.74375464      15.72455326      15.70638637      15.68975882      15.67374716      15.65773567      15.64341204      15.62737123      15.60964907      15.59065364      15.56868856      15.53879847      15.50452384      15.46954643      15.43474350      15.41779419
        15.47530364      15.56579987      15.65867000      15.73673036      15.79420141      15.83349928      15.86385339      15.89078361      15.91822760      15.94612648      15.97309023      15.99837424      16.02209316      16.04426905      16.06137817      16.07282529      16.08304870      16.09197449      16.10050121      16.11015527
        16.11915401      16.12963728      16.14058111      16.15162477      16.15948913      16.16504420      16.17091319      16.17760787      16.18484831      16.19012794      16.19324725      16.19486683      16.19792938      16.20699153      16.22346968      16.24704054      16.27185588      16.29278031      16.30689652      16.31165056
        15.16338311      15.16353390      15.16355195      15.16337106      15.16350100      15.16455583      15.16631947      15.16853852      15.17125805      15.17446990      15.17880174      15.18356048      15.18890670      15.19498963      15.20165602      15.20917903      15.21822638      15.22917892      15.24247248      15.25796437
        15.27582103      15.29586662      15.31617110      15.33501773      15.35208183      15.36768220      15.38194432      15.39501799      15.40744764      15.41970588      15.43259057      15.44755927      15.46511900      15.48500977      15.50574874      15.52736403      15.55122160      15.57914358      15.61420590      15.65764104
        15.70701777      15.75430006      15.79154416      15.80663909      15.80268153      15.78804619      15.77096328      15.75366968      15.73716304      15.71977326      15.70499770      15.69031188      15.67341989      15.65356070      15.62718678      15.58606601      15.53011380      15.46396020      15.38019669      15.28681206
        15.41295723      15.55880346      15.68633337      15.78387359      15.84935644      15.89071915      15.92189045      15.94897543      15.97630625      16.00221831      16.02638061      16.04916982      16.06974647      16.08924220      16.10564996      16.11822309      16.12889965      16.13916994      16.14878141      16.15869331
        16.16943050      16.18093553      16.19232046      16.20393171      16.21442777      16.22261184      16.23054761      16.23876180      16.24737647      16.25428005      16.25993134      16.26556110      16.27434534      16.28638321      16.30456602      16.32714225      16.35035868      16.37125468      16.38534682      16.39087985
        15.17810742      15.17808386      15.17802069      15.17799212      15.17805916      15.17888041      15.18020009      15.18199368      15.18430487      15.18721332      15.19118252      15.19550183      15.20055554      15.20644035      15.21287425      15.22013582      15.22885814      15.23944940      15.25246637      15.26806721
        15.28603035      15.30713895      15.32965039      15.35142608      15.37177210      15.39054538      15.40784520      15.42320829      15.43674541      15.44944305      15.46258611      15.47786563      15.49564483      15.51474621      15.53426286      15.55384862      15.57605141      15.60325416      15.63833987      15.68161001
        15.72949597      15.77786931      15.82082850      15.84587330      15.85074385      15.84312613      15.82965669      15.81436540      15.79785245      15.77980443      15.76420405      15.75157571      15.73737621      15.71951940      15.69361793      15.64692110      15.57246773      15.47244734      15.31090684      14.90139658
        15.33370743      15.56744062      15.72480806      15.83444968      15.90395162      15.94616189      15.97642991      16.00337535      16.02885076      16.05245150      16.07420455      16.09437670      16.11238308      16.12888270      16.14310398      16.15617595      16.16763609      16.17911180      16.19029231      16.20056930
        16.21211797      16.22414994      16.23650372      16.24897918      16.26123960      16.27236480      16.28275009      16.29220404      16.30192456      16.31119447      16.31912402      16.32822910      16.34096994      16.35695763      16.37666182      16.39822788      16.41857313      16.43768856      16.45122042      16.45700979
        15.19259674      15.19235129      15.19223351      15.19231310      15.19219729      15.19260122      15.19343471      15.19477782      15.19669989      15.19926957      15.20260848      15.20651901      15.21121781      15.21673186      15.22284474      15.22978387      15.23797055      15.24813238      15.26086635      15.27632221
        15.29424858      15.31604106      15.34056499      15.36467650      15.38736046      15.40875681      15.42859148      15.44602437      15.46108397      15.47452535      15.48844706      15.50446413      15.52274730      15.54147060      15.55961440      15.57763986      15.59874290      15.62608839      15.66214191      15.70450914
        15.75009322      15.79802006      15.84364351      15.87584522      15.88881247      15.88829445      15.88050554      15.86972520      15.85512324      15.83803053      15.82259992      15.81129486      15.80051082      15.78690020      15.76614384      15.72509190      15.65290296      15.56065126      15.45811299      15.35665928
        15.50063070      15.65908387      15.79421091      15.89652223      15.96302626      16.00297612      16.03063544      16.05547829      16.07809027      16.09959006      16.11884727      16.13567305      16.15148767      16.16484211      16.17680854      16.18906697      16.20068403      16.21259217      16.22444601      16.23552377
        16.24722814      16.25982733      16.27315658      16.28726114      16.30139805      16.31568403      16.32852093      16.34027337      16.35130035      16.36321237      16.37428731      16.38614653      16.40036071      16.41825170      16.43810413      16.45785968      16.47576288      16.49242346      16.50568927      16.51182346
        15.20601650      15.20585238      15.20589211      15.20612984      15.20606762      15.20597006      15.20628682      15.20720972      15.20878099      15.21092525      15.21355258      15.21714751      15.22157715      15.22669457      15.23233451      15.23875282      15.24643649      15.25615818      15.26853127      15.28353173
        15.30139553      15.32381947      15.34970117      15.37536560      15.39957169      15.42296435      15.44497740      15.46447783      15.48124487      15.49620468      15.51131050      15.52810032      15.54638576      15.56464794      15.58154416      15.59889670      15.61955279      15.64728177      15.68377589      15.72571681
        15.76962183      15.81509856      15.86128636      15.89736052      15.91648373      15.92299260      15.92197393      15.91663057      15.90774653      15.89435190      15.88079279      15.87040589      15.86224348      15.85400427      15.84117645      15.81270672      15.75688829      15.68501163      15.62550933      15.60488877
        15.67539062      15.77907327      15.88431746      15.97093594      16.02777752      16.06212520      16.08558770      16.10665703      16.12620195      16.14470243      16.16133205      16.17505461      16.18792956      16.19855368      16.20832339      16.21873046      16.22969105      16.24099525      16.25233220      16.26380277
        16.27569587      16.28880812      16.30355612      16.31941189      16.33584314      16.35320397      16.36857327      16.38288947      16.39590393      16.40951884      16.42287821      16.43612410      16.45123586      16.46906182      16.48769885      16.50569098      16.52212367      16.53748683      16.55012470      16.55683452
        15.21773722      15.21804380      15.21839847      15.21902672      15.21938595      15.21916291      15.21909406      15.21941131      15.22044363      15.22230651      15.22447543      15.22777533      15.23207303      15.23672888      15.24184896      15.24763121      15.25483591      15.26410545      15.27604926      15.29063531
        15.30830338      15.33071695      15.35719523      15.38392989      15.40939970      15.43440349      15.45812136      15.47926751      15.49774648      15.51426034      15.53047020      15.54781443      15.56576904      15.58332503      15.59936322      15.61660286      15.63727637      15.66543622      15.70214547      15.74432276
        15.78724134      15.82969824      15.87406007      15.91193538      15.93590470      15.94879074      15.95446666      15.95488623      15.95284949      15.94641463      15.93748614      15.92913991      15.92303873      15.91924730      15.91392772      15.90031584      15.86710788      15.81782503      15.78059143      15.78029339
        15.82725596      15.90267450      15.98363094      16.05183469      16.09574106      16.12232997      16.14095615      16.15755304      16.17326927      16.18830143      16.20195393      16.21294133      16.22251477      16.23060055      16.23802253      16.24642107      16.25629929      16.26680636      16.27713528      16.28797914
        16.29988335      16.31331837      16.32923459      16.34682029      16.36615880      16.38589371      16.40406693      16.42020392      16.43481574      16.44906247      16.46277226      16.47702892      16.49290464      16.51057786      16.52829351      16.54514143      16.56078337      16.57582988      16.58753028      16.59451572
        15.22848233      15.22918788      15.23000113      15.23106609      15.23190775      15.23202951      15.23191120      15.23167929      15.23209663      15.23350279      15.23569284      15.23881595      15.24280931      15.24708241      15.25161580      15.25672863      15.26358305      15.27243020      15.28394976      15.29788085
        15.31504915      15.33673918      15.36333885      15.39115070      15.41753883      15.44315926      15.46790014      15.49052204      15.51052891      15.52840381      15.54561326      15.56311612      15.58078958      15.59747969      15.61311632      15.63043679      15.65155929      15.67998361      15.71711998      15.76002189
        15.80246251      15.84268025      15.88429683      15.92275427      15.95070273      15.96902817      15.98081357      15.98719636      15.99069452      15.99169660      15.98984886      15.98629055      15.98340295      15.98226152      15.98260383      15.98109761      15.96977723      15.94587987      15.92393346      15.92848336
        15.96597277      16.02370321      16.08421450      16.13398918      16.16551989      16.18306178      16.19583875      16.20723987      16.21882646      16.23009379      16.24021291      16.24869367      16.25509818      16.26077418      16.26639373      16.27316960      16.28181306      16.29127401      16.30064917      16.31046118
        16.32192796      16.33547046      16.35227820      16.37169273      16.39368902      16.41568005      16.43586490      16.45292635      16.46823426      16.48231269      16.49568981      16.51026498      16.52688459      16.54476606      16.56232320      16.57818446      16.59342382      16.60782134      16.61878774      16.62503984
        15.23866217      15.23949966      15.24069982      15.24190632      15.24304622      15.24363614      15.24384497      15.24363814      15.24364293      15.24458746      15.24685995      15.24996378      15.25343468      15.25729525      15.26131869      15.26603479      15.27243546      15.28086891      15.29171159      15.30494679
        15.32132202      15.34211278      15.36816833      15.39642320      15.42334583      15.44876534      15.47391629      15.49780955      15.51923400      15.53820413      15.55601220      15.57371875      15.59150258      15.60781252      15.62320253      15.64047957      15.66226854      15.69103335      15.72852853      15.77268534
        15.81532070      15.85412681      15.89364338      15.93176941      15.96256295      15.98524971      16.00194328      16.01358589      16.02193650      16.02865905      16.03345712      16.03627773      16.03845397      16.04039947      16.04487353      16.05131872      16.05532170      16.05385678      16.05058874      16.06077783
        16.09224215      16.13633964      16.18016393      16.21234868      16.23230172      16.24100550      16.24695424      16.25338325      16.26015242      16.26734325      16.27406761      16.28022536      16.28453938      16.28862962      16.29294783      16.29861462      16.30572813      16.31398866      16.32261796      16.33151988
        16.34240030      16.35618098      16.37380667      16.39484774      16.41900754      16.44277285      16.46379297      16.48137636      16.49678422      16.51050348      16.52304680      16.53740552      16.55390710      16.57213963      16.58993270      16.60545160      16.62015772      16.63353064      16.64359140      16.64880977
        15.24848359      15.24924185      15.25051300      15.25164570      15.25273422      15.25376750      15.25438902      15.25465812      15.25475683      15.25559493      15.25770233      15.26063097      15.26375054      15.26718733      15.27074350      15.27524392      15.28120008      15.28921810      15.29926495      15.31170512
        15.32711657      15.34661294      15.37151523      15.39927300      15.42607555      15.45171588      15.47669493      15.50100849      15.52356563      15.54351356      15.56218729      15.58065816      15.59879543      15.61515145      15.63032295      15.64731982      15.66954840      15.69894584      15.73694401      15.78222522