# File generated by Flopy version 3.7.0 on 06/13/2024 at 09:56:09.
BEGIN options
END options

BEGIN griddata
  strt
    INTERNAL  FACTOR  1.0
        15.00000000      15.00000000      15.00000000      15.00000000      15.00000000      15.00000000      15.00000000      15.00000000      15.00000000      15.00000000      15.00000000      15.00000000      15.00000000      15.00000000      15.00000000      15.00000000      15.00000000      15.00000000      15.00000000      15.00000000
        15.00000000      15.00000000      15.00000000      15.00000000      15.00000000      15.00000000      15.00000000      15.00000000      15.00000000      15.00000000      15.00000000      15.00000000      15.00000000      15.00000000      15.00000000      15.00000000      15.00000000      15.00000000      15.00000000      15.00000000
        15.00000000      15.00000000      15.00000000      15.00000000      15.00000000      15.00000000      15.00000000      15.00000000      15.00000000      15.00000000      15.00000000      15.00000000      15.00000000      15.00000000      15.00000000      15.00000000      15.00000000      15.00000000      15.00000000      15.00000000
        15.00000000      15.00000000      15.00000000      15.00000000      15.00000000      15.00000000      15.00000000      15.00000000      15.00000000      15.00000000      15.00000000      15.00000000      15.00000000      15.00000000      15.00000000      15.00000000      15.00000000      15.00000000      15.00000000      15.00000000
        15.00000000      15.00000000      15.00000000      15.00000000      15.00000000      15.00000000      15.00000000      15.00000000      15.00000000      15.00000000      15.00000000      15.00000000      15.00000000      15.00000000      15.00000000      15.00000000      15.00000000      15.00000000      15.00000000      15.00000000
        15.00751599      15.00796473      15.00847458      15.00944334      15.01116247      15.01365598      15.01563235      15.01705231      15.01963073      15.02408613      15.03012524      15.03614928      15.03832583      15.03507444      15.02838426      15.02276875      15.01911580      15.01612470      15.01416704      15.01348707
        15.01285979      15.01154992      15.00959398      15.00750135      15.00596508      15.00501669      15.00439309      15.00447017      15.00610154      15.01064282      15.01781115      15.02584895      15.03198303      15.03650710      15.03942339      15.03969397      15.03561007      15.03019954      15.02340898      15.01839670
        15.01609019      15.01520494      15.01583930      15.02031749      15.02477650      15.02625000      15.02714954      15.02976962      15.03210885      15.03225728      15.03148256      15.03018160      15.02775885      15.02430840      15.02145091      15.02188330      15.02296771      15.02410592      15.02663703      15.03113923
        15.03538071      15.03450264      15.03006520      15.02645349      15.02496845      15.02303028      15.02233792      15.02162061      15.02072979      15.01838728      15.01424440      15.00990333      15.00679220      15.00444503      15.00316737      15.00278362      15.00285735      15.00325338      15.00374493      15.00423378
        15.00473429      15.00558834      15.00664471      15.00730768      15.00758681      15.00724479      15.00669914      15.00647324      15.00680498      15.00792910      15.01047775      15.01419504      15.01802567      15.02263547      15.02803763      15.03682540      15.04705080      15.05496648      15.05775758      15.05832868
        15.01629668      15.01718794      15.01871513      15.02194736      15.02651673      15.03156104      15.03533961      15.03837115      15.04283512      15.05122340      15.06056518      15.06605576      15.06505328      15.05762173      15.04831404      15.04012528      15.03509462      15.03216868      15.03057372      15.02887122
        15.02636343      15.02345360      15.01972414      15.01594158      15.01257375      15.01047224      15.00983461      15.01153811      15.01767184      15.02856277      15.04072132      15.05118598      15.05936307      15.06550615      15.06949059      15.07005586      15.06509209      15.05796272      15.05136347      15.04603860
        15.04241376      15.04294143      15.04830272      15.05363798      15.05729956      15.05843049      15.06112644      15.06411699      15.06586924      15.06398912      15.06143878      15.05738099      15.05325111      15.04858496      15.04603859      15.04670658      15.04873675      15.05176008      15.05651087      15.06234581
        15.06683781      15.06718879      15.06588180      15.06536915      15.06285033      15.05796885      15.05339891      15.04770223      15.04021806      15.03198049      15.02471572      15.01825406      15.01322539      15.00972362      15.00789671      15.00721612      15.00743261      15.00789861      15.00857730      15.00957816
        15.01102665      15.01259757      15.01393687      15.01472976      15.01517017      15.01547009      15.01617868      15.01815154      15.02131152      15.02659634      15.03203729      15.03723225      15.04253690      15.05052477      15.06105582      15.07205720      15.07885212      15.08238275      15.08678458      15.09052877
        15.02333943      15.02493418      15.02841012      15.03394405      15.04051964      15.04634017      15.05267750      15.06018168      15.06906492      15.07889492      15.08647031      15.08912793      15.08735589      15.08126663      15.07294822      15.06418836      15.05798649      15.05409486      15.05009027      15.04501495
        15.04000638      15.03531979      15.03020275      15.02519392      15.02151919      15.01968521      15.02089397      15.02557291      15.03572132      15.04858391      15.06027497      15.07088255      15.08125507      15.08898939      15.09363763      15.09629961      15.09525604      15.09208096      15.09084117      15.08946730
        15.08746054      15.08900810      15.09360394      15.09460058      15.09427885      15.09276939      15.09136033      15.08862989      15.08486014      15.08120469      15.07752972      15.07347326      15.06935310      15.06615907      15.06480502      15.06484782      15.06731590      15.07252667      15.07892924      15.08537542
        15.08989649      15.09348519      15.09654763      15.09680418      15.09196362      15.08429303      15.07504461      15.06527221      15.05442451      15.04404408      15.03500096      15.02794991      15.02216030      15.01769995      15.01479681      15.01368213      15.01389743      15.01434997      15.01512718      15.01615143
        15.01745996      15.01841796      15.01907131      15.01973578      15.02084998      15.02364084      15.02940786      15.03868922      15.05030640      15.06110574      15.06759057      15.07428134      15.08379493      15.09371341      15.10351449      15.10944445      15.11208280      15.11434362      15.11788698      15.12073811
        15.03190460      15.03363650      15.03828520      15.04566058      15.05406877      15.06365696      15.07461992      15.08547141      15.09624551      15.10498389      15.10991299      15.11161280      15.10945744      15.10540500      15.09903309      15.08993735      15.08106878      15.07416977      15.06757034      15.06059378
        15.05342292      15.04771062      15.04263501      15.03830406      15.03546762      15.03548994      15.03846869      15.04489410      15.05513958      15.06638305      15.07924915      15.09319804      15.10430877      15.11202397      15.11785929      15.12225179      15.12485386      15.12572813      15.12746304      15.12855839
        15.12794327      15.12685465      15.12624559      15.12429871      15.12068724      15.11599626      15.11004592      15.10296356      15.09595059      15.09042763      15.08643580      15.08333443      15.08101403      15.07988093      15.07980494      15.08159593      15.08621439      15.09224596      15.09902706      15.10496216
        15.10946366      15.11287969      15.11355342      15.11129246      15.10631207      15.09815619      15.08789941      15.07737349      15.06721546      15.05774059      15.04894963      15.04180914      15.03572731      15.03008623      15.02579844      15.02334028      15.02236266      15.02201281      15.02184519      15.02173572
        15.02158597      15.02160169      15.02191357      15.02315702      15.02649537      15.03483761      15.04950361      15.06978784      15.09055653      15.10700913      15.11807274      15.12712911      15.13658500      15.14166366      15.14379955      15.14353065      15.14260569      15.14124627      15.13907795      15.13755638
        15.04532018      15.04940142      15.05760080      15.06820709      15.07783451      15.08864412      15.09951053      15.10910849      15.11745130      15.12267716      15.12481804      15.12519011      15.12365124      15.12009229      15.11429535      15.10625745      15.09723094      15.08908734      15.08204627      15.07520393
        15.06882994      15.06395166      15.06047811      15.05913958      15.05918720      15.06111544      15.06500171      15.07435583      15.08760841      15.10130484      15.11314055      15.12225577      15.12788010      15.13267430      15.13766648      15.14106278      15.14366569      15.14511502      15.14523995      15.14501977
        15.14436824      15.14285394      15.14167610      15.13951410      15.13563677      15.13069333      15.12497201      15.11815791      15.11079215      15.10543370      15.10217930      15.10082437      15.10164330      15.10286727      15.10511445      15.10851810      15.11197176      15.11517599      15.11874882      15.12121844
        15.12253002      15.12242468      15.12132233      15.11845782      15.11356676      15.10663866      15.09810289      15.08838411      15.07957688      15.07245306      15.06590932      15.05962463      15.05345803      15.04636539      15.04017520      15.03486427      15.03074426      15.02818263      15.02638881      15.02527285
        15.02462273      15.02452739      15.02545084      15.02827629      15.03605741      15.05249638      15.07935902      15.10739758      15.13100100      15.14804713      15.15906538      15.16492313      15.16773484      15.16705751      15.16385501      15.15955389      15.15522699      15.15115741      15.14759372      15.14506953
        15.07703971      15.08284967      15.09302783      15.10183793      15.10749195      15.11256686      15.11789400      15.12356805      15.12780700      15.12994104      15.13075596      15.13076490      15.12989607      15.12739336      15.12281171      15.11618527      15.10867312      15.10162708      15.09516032      15.08904050
        15.08397890      15.08083123      15.07982113      15.08123569      15.08515733      15.09008837      15.09914641      15.11442280      15.12951466      15.13822098      15.14157006      15.14320813      15.14455131      15.14627932      15.14806897      15.14938200      15.15014364      15.15044086      15.15041084      15.15012398
        15.14981997      15.14962124      15.14885005      15.14695959      15.14427652      15.14042215      15.13584751      15.13226540      15.12887296      15.12679038      15.12687421      15.12803247      15.13012934      15.13176316      15.13289194      15.13405734      15.13438225      15.13364365      15.13237084      15.13133993
        15.13019740      15.12905274      15.12759945      15.12507889      15.12036432      15.11410152      15.10653884      15.09821330      15.09043695      15.08460238      15.07991427      15.07525095      15.07018736      15.06268553      15.05366087      15.04536631      15.03846225      15.03369907      15.03100656      15.02995009
        15.03016131      15.03143717      15.03418638      15.04091984      15.05633079      15.08376425      15.11594383      15.14163018      15.16005193      15.17082701      15.17677988      15.17904299      15.17832959      15.17537433      15.17081867      15.16547079      15.16052678      15.15647686      15.15351966      15.15208626
        15.13378557      15.13572978      15.13627724      15.13313660      15.13073279      15.12945099      15.12933458      15.13133958      15.13333819      15.13466742      15.13552249      15.13566653      15.13493296      15.13296924      15.12948526      15.12399536      15.11726024      15.11119375      15.10583302      15.10075523
        15.09654007      15.09410261      15.09530274      15.09911620      15.10465250      15.11164981      15.12387550      15.13876514      15.14805581      15.15049806      15.15041622      15.15034251      15.15064358      15.15105876      15.15143146      15.15166205      15.15183260      15.15204637      15.15231020      15.15263913
        15.15319757      15.15372537      15.15323236      15.15187268      15.15036615      15.14893533      15.14722345      15.14610300      15.14619906      15.14653793      15.14759716      15.14912960      15.14987214      15.15041008      15.15051876      15.14953793      15.14757185      15.14459783      15.14141278      15.13891278
        15.13694366      15.13596162      15.13564169      15.13367169      15.12902684      15.12187480      15.11414104      15.10629416      15.09905001      15.09335679      15.08902000      15.08508822      15.08094778      15.07486929      15.06568459      15.05623883      15.04875646      15.04418642      15.04287040      15.04263710
        15.04280343      15.04565724      15.05287330      15.06642230      15.09015009      15.12051985      15.14615672      15.16358581      15.17410446      15.17992370      15.18326098      15.18453467      15.18355276      15.18082098      15.17683384      15.17222940      15.16804289      15.16473822      15.16219956      15.16135871
        15.20477052      15.19605558      15.17971391      15.16565726      15.15654806      15.15054301      15.14652521      15.14365102      15.14204714      15.14144541      15.14147866      15.14122551      15.14030888      15.13857607      15.13561192      15.13109622      15.12548574      15.11975000      15.11513176      15.11139474
        15.10840305      15.10746313      15.10975433      15.11353417      15.11842206      15.12607628      15.13713163      15.14634456      15.15003999      15.15075395      15.15103101      15.15132778      15.15167485      15.15200650      15.15225414      15.15247150      15.15274996      15.15318125      15.15378723      15.15469087
        15.15587479      15.15689738      15.15722328      15.15739375      15.15752883      15.15795211      15.15883340      15.15947264      15.16032645      15.16157402      15.16269641      15.16333441      15.16292836      15.16250665      15.16198567      15.15993430      15.15688951      15.15372633      15.15115488      15.14913626
        15.14763477      15.14772240      15.14853043      15.14687727      15.14198808      15.13360809      15.12389579      15.11473193      15.10635625      15.10036078      15.09614296      15.09203171      15.08812611      15.08362613      15.07718681      15.06936881      15.06306144      15.06039279      15.06029353      15.06007991
        15.06100352      15.06590564      15.07753461      15.09726138      15.12328830      15.14722578      15.16322493      15.17351741      15.18098325      15.18593654      15.18876190      15.18940406      15.18824423      15.18604805      15.18325551      15.18022526      15.17712846      15.17451790      15.17252869      15.17188164
        15.25794693      15.24485238      15.22250812      15.20191244      15.18780560      15.17830058      15.16971956      15.16102075      15.15416287      15.15090146      15.14973203      15.14876541      15.14756137      15.14588864      15.14323277      15.13968658      15.13528655      15.13050934      15.12639061      15.12352501
        15.12087240      15.12029291      15.12168348      15.12455776      15.12949707      15.13645845      15.14312304      15.14684657      15.14838480      15.14943540      15.15037540      15.15114369      15.15175286      15.15227973      15.15271044      15.15310328      15.15360213      15.15430618      15.15526677      15.15659743
        15.15835494      15.16031382      15.16259213      15.16572406      15.16819221      15.16964720      15.17084973      15.17216463      15.17420004      15.17583423      15.17593859      15.17492777      15.17379495      15.17229562      15.17010332      15.16780703      15.16572431      15.16473695      15.16503681      15.16601908
        15.16725031      15.17052126      15.17069572      15.16728671      15.16017353      15.15071896      15.13933990      15.12862773      15.12104240      15.11562460      15.11031319      15.10588939      15.10243489      15.09979743      15.09499694      15.08911036      15.08530672      15.08200630      15.07979429      15.07893743
        15.08328737      15.09327397      15.10820944      15.12792620      15.14830228      15.16404478      15.17522096      15.18390982      15.18999058      15.19356246      15.19496139      15.19476138      15.19352274      15.19163252      15.18944547      15.18715663      15.18488735      15.18324723      15.18327630      15.18392251
        15.29290363      15.27939632      15.25964544      15.23735604      15.21728452      15.20170359      15.19002121      15.17940229      15.17085351      15.16587300      15.16244045      15.15929975      15.15647080      15.15369516      15.15068814      15.14748341      15.14392064      15.14025174      15.13686060      15.13253292
        15.13131489      15.13615060      15.13483266      15.13145355      15.12999172      15.13012718      15.13249463      15.13637345      15.14043561      15.14344252      15.14537837      15.14686796      15.14822552      15.14958604      15.15078207      15.15169564      15.15239816      15.15301445      15.15373808      15.15469559
        15.15582644      15.15720191      15.15901136      15.16158851      15.16536635      15.17045633      15.17576294      15.17994053      15.18264196      15.18482431      15.18701356      15.18835244      15.18792101      15.18596511      15.18382062      15.18211503      15.18021309      15.17821486      15.17715472      15.17772164
        15.18011183      15.18465331      15.18321074      15.18500815      15.19386168      15.19706826      15.19591755      15.20055743      15.19943915      15.19390239      15.18538790      15.17696647      15.16826718      15.15992978      15.15343657      15.14898511      15.14694070      15.14412233      15.14186741      15.13888706
        15.13405446      15.12881469      15.12291406      15.11368514      15.10705140      15.10763963      15.11536592      15.12674655      15.13915164      15.15374734      15.16847064      15.17961037      15.18795268      15.19423286      15.19826107      15.20017214      15.20031408      15.19948496      15.19796663      15.19612252
        15.19449764      15.19280469      15.19163171      15.19185549      15.19355111      15.19462496      15.31843183      15.30766271      15.28978707      15.26927873      15.24850882      15.22964353      15.21270808      15.19865616      15.18741796      15.17842687      15.17235563      15.16738779      15.16288780      15.15865775
        15.15476460      15.15118358      15.14787609      15.14473829      15.14176812      15.14044792      15.14270495      15.14164840      15.13890099      15.13813216      15.13972755      15.13899638      15.13867110      15.13935946      15.13902856      15.13887274      15.13919067      15.13903359      15.13736070      15.13680146
        15.13827707      15.13796817      15.13866333      15.13851864      15.13884255      15.13865580      15.13829109      15.13755890      15.14043845      15.13971783      15.13936715      15.13918654      15.13947133      15.13932082      15.13991261      15.13959362      15.14068723      15.14006755      15.13899747      15.13882617
        15.13910819      15.13894715      15.13863435      15.13917801      15.13885419      15.13822184      15.13924222      15.13861923      15.13621827      15.13543128      15.13726171      15.13633532      15.13458838      15.13407808      15.13541978      15.13778475      15.14017798      15.14217525      15.14384938      15.14549604
        15.14708372      15.14873598      15.15030825      15.15154359      15.15248794      15.15354191      15.15494684      15.15649711      15.15800580      15.15987113      15.16247945      15.16618455      15.17142117      15.17791348      15.18454037      15.19030893      15.19486260      15.19759703      15.19814660      15.19706758
        15.19513421      15.19315917      15.19139616      15.19003402      15.18903637      15.18919188      15.19127806      15.19555920      15.20152920      15.20133475      15.20306657      15.21208840      15.21478644      15.20367159      15.20486156      15.20845522      15.20883201      15.20940393      15.21110483      15.21127643
        15.21153891      15.21236534      15.21278446      15.20665139      15.20854352      15.21027622      15.21099668      15.21195308      15.21229714      15.21312640      15.21336312      15.21319052      15.21306663      15.21455021      15.21409318      15.21384516      15.21406639      15.21492009      15.21522447      15.21630943
        15.21689093      15.21936700      15.22043057      15.21438452      15.21475833      15.21556214      15.21577518      15.21587762      15.21749677      15.21790210      15.21800508      15.22135941      15.22182928      15.21393987      15.21625908      15.22128651      15.22190978      15.22022730      15.21895527      15.21568861
        15.21145313      15.20752087      15.20486745      15.20243297      15.19810451      15.19468925      15.19381776      15.19178095      15.18878960      15.18389806      15.17780536      15.17159809      15.16317983      15.15280359      15.14656981      15.15025513      15.15573094      15.16068044      15.16743184      15.17711712
        15.18579879      15.19285031      15.19864085      15.20319590      15.20537646      15.20567362      15.20498327      15.20377569      15.20222602      15.20031682      15.19882476      15.19809202      15.19837399      15.19969508      15.20078941      15.20098134      15.33382710      15.32804216      15.31595243      15.29935916
        15.28038519      15.25965210      15.23834648      15.21837434      15.20193243      15.18853876      15.17961631      15.17258301      15.16648937      15.16083240      15.15562394      15.15155935      15.14839699      15.14552591      15.14249152      15.14047514      15.13910513      15.13985101      15.13861668      15.13668017
        15.13398870      15.13261851      15.13353357      15.13582134      15.13828330      15.14049414      15.14232504      15.14396919      15.14566266      15.14750552      15.14947119      15.15139837      15.15318201      15.15511677      15.15717854      15.15925831      15.16154741      15.16419075      15.16730310      15.17165357
        15.17819833      15.18617218      15.19392359      15.20038428      15.20476060      15.20597215      15.20465719      15.20261247      15.20084761      15.19989749      15.19970356      15.19996547      15.20097929      15.20325357      15.20750024      15.21327214      15.21896077      15.22293018      15.22400011      15.22500144
        15.22582843      15.22652894      15.22685903      15.22751677      15.22776192      15.22812274      15.22898172      15.22969035      15.23061415      15.23081599      15.22814611      15.22473344      15.22128700      15.21760738      15.21235611      15.20680600      15.20064525      15.19466472      15.18851155      15.18468407
        15.18489562      15.18823771      15.18993548      15.19115776      15.19493390      15.20013338      15.20489190      15.20887890      15.21180214      15.21318940      15.21284392      15.21170572      15.21012693      15.20861287      15.20745296      15.20628155      15.20543623      15.20540528      15.20563756      15.20579813
        15.20522037      15.20459529      15.34268625      15.33884458      15.33158920      15.31957207      15.30369896      15.28214510      15.25704190      15.23357766      15.21424980      15.19926907      15.18785911      15.17834152      15.16927391      15.16109586      15.15500624      15.15083466      15.14751378      15.14443152
        15.14067016      15.13625778      15.13125218      15.12709725      15.12605801      15.12802254      15.13157025      15.13492652      15.13756841      15.13957758      15.14140595      15.14315274      15.14526475      15.14799729      15.15091256      15.15371894      15.15638770      15.15918199      15.16222720      15.16527084
        15.16850208      15.17276927      15.17924277      15.18733184      15.19486298      15.20160315      15.20722255      15.21055753      15.21092956      15.20961052      15.20814361      15.20758549      15.20829580      15.20983498      15.21121780      15.21303439      15.21557527      15.21903269      15.22261882      15.22522987
        15.22692414      15.22820936      15.22944358      15.23098681      15.23271221      15.23467340      15.23704767      15.23931781      15.24077351      15.24060402      15.23829110      15.23468599      15.23083710      15.22696220      15.22230643      15.21722381      15.21253418      15.20838310      15.20559247      15.20570421
        15.20748877      15.20887605      15.21054436      15.21263922      15.21620753      15.21974726      15.22259654      15.22364282      15.22306452      15.22145690      15.21998627      15.21815096      15.21619920      15.21456861      15.21331071      15.21246448      15.21180804      15.21138307      15.21060050      15.20946127
        15.20818363      15.20732517      15.34927121      15.34538532      15.33779736      15.32618331      15.31067912      15.28885143      15.26406951      15.24169773      15.22222800      15.20576159      15.19236416      15.18058381      15.17016026      15.16128478      15.15442470      15.14933110      15.14489934      15.14001999
        15.13392412      15.12681778      15.11980264      15.11556601      15.11586564      15.11919102      15.12454180      15.12913003      15.13192785      15.13388523      15.13561373      15.13787243      15.14044405      15.14424020      15.14871499      15.15281822      15.15666963      15.16033911      15.16393571      15.16755586
        15.17188371      15.17769053      15.18502067      15.19210630      15.19862777      15.20476434      15.20981887      15.21302777      15.21418464      15.21398539      15.21355530      15.21388093      15.21499037      15.21637898      15.21771904      15.21936231      15.22136539      15.22369060      15.22579771      15.22740129
        15.22870588      15.23006166      15.23157842      15.23335418      15.23524796      15.23760158      15.23993917      15.24175230      15.24274668      15.24249740      15.24092487      15.23842129      15.23540825      15.23202250      15.22873231      15.22557417      15.22297321      15.22056254      15.21942480      15.21948098
        15.22095537      15.22255912      15.22422044      15.22635958      15.22867529      15.23086477      15.23197033      15.23182560      15.23063325      15.22850597      15.22608957      15.22370427      15.22151346      15.21976899      15.21808667      15.21663205      15.21525917      15.21399212      15.21273672      15.21148122
        15.21035176      15.20967267      15.34603265      15.34056433      15.33159403      15.31987825      15.30468737      15.28687662      15.26788068      15.24664176      15.22463593      15.20560883      15.19185588      15.18052384      15.16975198      15.16010987      15.15189891      15.14486472      15.13871701      15.13160905
        15.12262787      15.11288204      15.10466426      15.10116672      15.10209033      15.10491057      15.10848577      15.11325868      15.11645589      15.11937733      15.12161222      15.12558492      15.13003838      15.13605110      15.14276209      15.14895339      15.15466056      15.15959267      15.16386482      15.16818207
        15.17322108      15.17937510      15.18624237      15.19303616      15.19941763      15.20480138      15.20934831      15.21305796      15.21503946      15.21549695      15.21553377      15.21598460      15.21688240      15.21795742      15.21920335      15.22079088      15.22291195      15.22517676      15.22704925      15.22859630
        15.23006327      15.23153293      15.23303366      15.23474320      15.23684106      15.23897799      15.24064298      15.24199185      15.24288403      15.24294443      15.24209965      15.24053772      15.23850973      15.23613142      15.23366037      15.23178023      15.23088134      15.23029907      15.23026511      15.23091856
        15.23179943      15.23252138      15.23322879      15.23420718      15.23544105      15.23652193      15.23685777      15.23651369      15.23517694      15.23303649      15.23036396      15.22765516      15.22494967      15.22268726      15.22079328      15.21908675      15.21737149      15.21577815      15.21448376      15.21340430
        15.21248836      15.21191350      15.33503196      15.32947290      15.32076694      15.31063533      15.29776556      15.28006616      15.25817063      15.23568760      15.21626753      15.20168475      15.19009220      15.17941001      15.16788248      15.15621487      15.14604737      15.13762029      15.12900856      15.11794531
        15.10473003      15.09242788      15.08413263      15.08063645      15.07843857      15.07579767      15.07499925      15.08014263      15.08792109      15.09450013      15.09975301      15.10686553      15.11498030      15.12446312      15.13418877      15.14300318      15.15048481      15.15691794      15.16223991      15.16756470