# File generated by Flopy version 3.7.0 on 06/18/2024 at 13:32:27.
BEGIN options
  PRINT_OPTION  summary
  COMPLEXITY  complex
END options

BEGIN linear
  LINEAR_ACCELERATION  bicgstab
END linear

