# File generated by Flopy version 3.6.0 on 09/25/2024 at 13:53:16.
BEGIN options
END options

BEGIN dimensions
  MAXBOUND  5
END dimensions

BEGIN period  1
  1 1410 0.00000000E+00
  1 1450 -5.00000000E-03
  1 3410 -2.50000000E-02
  1 3470 0.00000000E+00
  1 4460 0.00000000E+00
END period  1

