# File generated by Flopy version 3.7.0 on 08/01/2024 at 18:23:41.
BEGIN options
END options

BEGIN griddata
  strt
    INTERNAL  FACTOR  1.0
        15.00000000      15.00000000      15.00000000      15.00000000      15.00000000      15.00000000      15.00000000      15.00000000      15.00000000      15.00000000      15.00000000      15.00000000      15.00000000      15.00000000      15.00000000      15.00000000      15.00000000      15.00000000      15.00000000      15.00000000
        15.00000000      15.00000000      15.00000000      15.00000000      15.00000000      15.00000000      15.00000000      15.00000000      15.00000000      15.00000000      15.00000000      15.00000000      15.00000000      15.00000000      15.00000000      15.00000000      15.00000000      15.00000000      15.00000000      15.00000000
        15.00000000      15.00000000      15.00000000      15.00000000      15.00000000      15.00000000      15.00000000      15.00000000      15.00000000      15.00000000      15.00000000      15.00000000      15.00000000      15.00000000      15.00000000      15.00000000      15.00000000      15.00000000      15.00000000      15.00000000
        15.00000000      15.00000000      15.00000000      15.00000000      15.00000000      15.00000000      15.00000000      15.00000000      15.00000000      15.00000000      15.00000000      15.00000000      15.00000000      15.00000000      15.00000000      15.00000000      15.00000000      15.00000000      15.00000000      15.00000000
        15.00000000      15.00000000      15.00000000      15.00000000      15.00000000      15.00000000      15.00000000      15.00000000      15.00000000      15.00000000      15.00000000      15.00000000      15.00000000      15.00000000      15.00000000      15.00000000      15.00000000      15.00000000      15.00000000      15.00000000
        15.04144831      15.04060666      15.04024491      15.04172181      15.04543392      15.04969251      15.05447803      15.06016810      15.06490201      15.06862506      15.06929613      15.06989997      15.07094014      15.06978706      15.06907424      15.07007630      15.06955460      15.06882130      15.06848181      15.06814273
        15.06861682      15.07107766      15.07143806      15.07238482      15.07386928      15.07505345      15.08028735      15.09001373      15.09950672      15.11111753      15.12137451      15.13016766      15.13814392      15.14837784      15.16001257      15.17489326      15.19239079      15.20547762      15.21419706      15.20994256
        15.19331704      15.17428846      15.15974162      15.15461586      15.15497612      15.15091311      15.14735410      15.14721178      15.14745696      15.15260990      15.15747343      15.16078790      15.16939373      15.18000600      15.19071789      15.19492920      15.19621044      15.19847408      15.19578680      15.19281360
        15.19290464      15.18724720      15.18119785      15.18038448      15.18819534      15.20023226      15.21432812      15.23008654      15.25008061      15.26311205      15.27346722      15.29184580      15.31599267      15.32698356      15.33310495      15.33315904      15.33198976      15.32389365      15.31303261      15.30702661
        15.28852898      15.26481087      15.25654009      15.26111464      15.26325972      15.25979560      15.24897344      15.23894178      15.22939570      15.22494514      15.22637248      15.22985019      15.23583415      15.24221692      15.24880937      15.25963263      15.25952948      15.25389220      15.24912038      15.24270100
        15.08609404      15.08571841      15.08522295      15.08648750      15.09140704      15.09703659      15.10369476      15.11116828      15.11844365      15.12448762      15.12807310      15.13084554      15.13341130      15.13499257      15.13567881      15.13736864      15.13907060      15.14037106      15.14133850      15.14287645
        15.14454359      15.14592602      15.14599932      15.14557788      15.14807983      15.15228667      15.16075761      15.17432868      15.18864183      15.20507370      15.22363003      15.24023373      15.25698422      15.27802617      15.30065484      15.32455771      15.35551161      15.38254490      15.40334624      15.40460042
        15.38391580      15.35226527      15.32179870      15.30598854      15.30379548      15.30027673      15.29216252      15.28864319      15.29103759      15.29506003      15.30167689      15.30788039      15.31949776      15.33427706      15.35063529      15.36303622      15.36918615      15.37276236      15.37201021      15.36718436
        15.36537107      15.36118914      15.35164315      15.35098998      15.35914659      15.37643271      15.39691350      15.42227978      15.45442761      15.48229068      15.50334584      15.52613317      15.55506626      15.57654970      15.59185715      15.59410311      15.59396444      15.58991105      15.58227497      15.57365668
        15.55713201      15.52496033      15.50223804      15.50254044      15.50537268      15.50649042      15.49227826      15.47614832      15.46012083      15.44896354      15.45037878      15.45950133      15.46959010      15.47954197      15.49063440      15.50889601      15.51261450      15.50743631      15.50385868      15.49911865
        15.13166093      15.13238484      15.13231278      15.13313598      15.13705192      15.14217563      15.14923042      15.15722757      15.16669927      15.17452869      15.18135100      15.18697141      15.19172633      15.19625441      15.19993503      15.20283313      15.20768786      15.21357777      15.21829232      15.22243935
        15.22561658      15.22620588      15.22480531      15.22379948      15.22462144      15.23085314      15.24033515      15.25514534      15.27267435      15.29072412      15.31323915      15.33730704      15.36457142      15.39461359      15.42638838      15.46026670      15.50051389      15.54048092      15.57182679      15.58277631
        15.56745443      15.53058457      15.49166020      15.46368056      15.45308973      15.44739868      15.43795099      15.42981473      15.42941147      15.43207700      15.43765963      15.44335635      15.45357901      15.46926281      15.48792149      15.50735626      15.52016731      15.52692392      15.53010673      15.52806586
        15.52523497      15.52209520      15.51484540      15.51331636      15.52026535      15.53705038      15.56013725      15.58838441      15.62447709      15.66159666      15.69597858      15.72421738      15.74903025      15.77510538      15.79612356      15.80569159      15.80581552      15.80818255      15.80678332      15.80364356
        15.79234507      15.76604626      15.73635096      15.72829911      15.73187621      15.73443415      15.72457561      15.70658827      15.68721299      15.66987376      15.66543801      15.67844718      15.69232974      15.70706477      15.72241790      15.74099777      15.75390349      15.75388112      15.75091127      15.74938731
        15.17731353      15.17854740      15.17900825      15.18012057      15.18311938      15.18772553      15.19396917      15.20240397      15.21204190      15.22197177      15.23155187      15.23971007      15.24687840      15.25342300      15.26002029      15.26630133      15.27380956      15.28372991      15.29343433      15.30099425
        15.30563145      15.30718943      15.30668612      15.30652379      15.30622279      15.31205251      15.32131550      15.33538554      15.35387444      15.37285771      15.39658541      15.42582677      15.46069332      15.49766764      15.53689241      15.57977617      15.62703499      15.67715300      15.71743020      15.74010791
        15.73532944      15.70263305      15.66073323      15.62496971      15.60255462      15.59127973      15.58204496      15.57213185      15.56326696      15.56198922      15.56493649      15.56883448      15.57682061      15.58987184      15.60794708      15.62953963      15.64812995      15.66173145      15.67001405      15.67331938
        15.67235838      15.67038870      15.66667477      15.66608321      15.67136387      15.68579937      15.70750652      15.73668212      15.77110303      15.81181856      15.85487996      15.88985493      15.91467263      15.94118512      15.96494636      15.97998562      15.98402963      15.98906931      15.99422246      15.99487813
        15.99017840      15.97577617      15.95296125      15.93810045      15.93697481      15.93879233      15.93406227      15.91859827      15.90124510      15.88111394      15.86969425      15.87749490      15.89491510      15.91374273      15.93273888      15.95059869      15.97131505      15.98233949      15.98413324      15.98326402
        15.22350196      15.22402974      15.22426716      15.22603212      15.22832437      15.23295397      15.23901811      15.24772441      15.25723886      15.26830405      15.27925305      15.28956369      15.29812651      15.30586035      15.31430604      15.32409937      15.33493994      15.34761683      15.36116553      15.37309871
        15.38147683      15.38581759      15.38932087      15.39067855      15.39153397      15.39687583      15.40563840      15.41843951      15.43515131      15.45475939      15.47797302      15.50963989      15.54685631      15.58886655      15.63398498      15.68265693      15.73640510      15.79252193      15.84136951      15.87595062
        15.88511392      15.86631892      15.82582592      15.78486987      15.75279617      15.73415531      15.72230785      15.71150376      15.69607666      15.68587910      15.68322666      15.68639764      15.69183894      15.70081714      15.71447116      15.73499294      15.75657798      15.77609429      15.79118188      15.80120254
        15.80395195      15.80378733      15.80286584      15.80642148      15.81321862      15.82589972      15.84371927      15.86961922      15.90188465      15.94262287      15.98795863      16.02777828      16.05860988      16.08351626      16.10662581      16.12317101      16.13260433      16.13870943      16.14648732      16.15175988
        16.15385004      16.15088776      16.13929796      16.12684482      16.12257948      16.12281623      16.12084594      16.10984701      16.09660020      16.07902694      16.06206365      16.06211197      16.07984132      16.10052679      16.12168642      16.14168196      16.16692602      16.19006682      16.19940232      16.20065073
        15.26927843      15.26914316      15.26893534      15.27024764      15.27245777      15.27675670      15.28352587      15.29220800      15.30191629      15.31294110      15.32471424      15.33660164      15.34619519      15.35538166      15.36543466      15.37738427      15.39082159      15.40513415      15.42025076      15.43548000
        15.44917284      15.45969297      15.46848472      15.47336972      15.47758237      15.48356198      15.49253642      15.50478808      15.51910262      15.53851671      15.56171800      15.59350776      15.63078347      15.67474274      15.72240121      15.77435117      15.83060052      15.88872613      15.94371835      15.99187423
        16.02062895      16.01784139      15.98429921      15.93861989      15.90184111      15.87677527      15.85950386      15.84577988      15.82780337      15.81069409      15.80067502      15.79926066      15.80029046      15.80508881      15.81406744      15.83093998      15.85254036      15.87475114      15.89666082      15.91345366
        15.92151037      15.92335766      15.92577541      15.93188379      15.94307611      15.95490890      15.97027236      15.99090337      16.02175029      16.06020154      16.10437869      16.14587037      16.18109120      16.20735243      16.22762316      16.24438076      16.25639696      16.26421411      16.27240563      16.28132952
        16.28849014      16.29343321      16.29188639      16.28585234      16.28487059      16.28538765      16.28560801      16.28145255      16.27270946      16.26129665      16.24573565      16.23934189      16.25008130      16.27071540      16.29338965      16.31739098      16.34629370      16.37658018      16.39051625      16.39599799
        15.31269043      15.31209279      15.31216859      15.31248200      15.31479184      15.31884800      15.32576578      15.33417728      15.34363664      15.35444267      15.36680854      15.37964764      15.39076175      15.40169859      15.41351876      15.42621032      15.44050824      15.45509682      15.47010920      15.48671659
        15.50480448      15.52339563      15.53954552      15.55071063      15.56056941      15.56859629      15.57889351      15.59163627      15.60636644      15.62536551      15.64889391      15.67851840      15.71597374      15.75973997      15.80710000      15.85870043      15.91309000      15.96961904      16.02762896      16.08708330
        16.13550725      16.15339726      16.13208390      16.08706530      16.04511932      16.01517966      15.99352245      15.97602573      15.95670215      15.93854857      15.92401361      15.91412564      15.90845584      15.90898347      15.91390840      15.92485174      15.94456497      15.96795014      15.99335086      16.01338640
        16.02657449      16.03279659      16.03845086      16.04567011      16.05848779      16.07200962      16.08653421      16.10648239      16.13366184      16.16857827      16.20924176      16.25023199      16.28676866      16.31540371      16.33551055      16.35018072      16.36273786      16.37188292      16.38129710      16.39079518
        16.40031743      16.40942352      16.41761527      16.41976182      16.42218999      16.42464213      16.42704559      16.43034266      16.42855815      16.42455124      16.41632026      16.40717649      16.41023760      16.42810955      16.45132913      16.48044976      16.51520669      16.54688162      16.56379444      16.57118814
        15.35539074      15.35438336      15.35451091      15.35417887      15.35604976      15.36039484      15.36675967      15.37436086      15.38332269      15.39405840      15.40625635      15.41924661      15.43203278      15.44463221      15.45746995      15.47076203      15.48459967      15.49818917      15.51161047      15.52776994
        15.54992288      15.57682673      15.60172171      15.62143671      15.63718019      15.64955336      15.66253706      15.67737053      15.69513507      15.71435824      15.73784345      15.76544339      15.80211719      15.84411103      15.88880985      15.93650041      15.98680163      16.03926768      16.09830194      16.16369276
        16.22566262      16.26388741      16.26173736      16.22767484      16.18364503      16.14822592      16.12170704      16.10084662      16.08084020      16.06333790      16.04845873      16.03373375      16.02184629      16.01660254      16.01667668      16.02155277      16.03768891      16.06212625      16.08690626      16.10819915
        16.12523399      16.13552822      16.14316280      16.15189007      16.16361407      16.17836276      16.19299526      16.21309427      16.23787091      16.26988441      16.30628436      16.34321701      16.37751307      16.40767955      16.42923497      16.44242384      16.45508772      16.46502964      16.47516716      16.48623982
        16.49637425      16.50817050      16.52161650      16.53263371      16.53808446      16.54246797      16.54721785      16.55364261      16.55911898      16.56217964      16.56151124      16.55661472      16.55744792      16.57144626      16.59506371      16.62954744      16.66812743      16.69956672      16.71992894      16.72689475
        15.39741225      15.39728901      15.39732857      15.39682570      15.39795866      15.40187296      15.40772154      15.41450337      15.42272291      15.43274145      15.44451868      15.45721364      15.47092070      15.48472081      15.49810746      15.51165428      15.52419046      15.53540537      15.54509277      15.55699403
        15.58519430      15.62096598      15.65512365      15.68379167      15.70632900      15.72538263      15.74279608      15.76056291      15.78057212      15.80120554      15.82428100      15.85079287      15.88418435      15.92325797      15.96452896      16.00768430      16.05332760      16.10265485      16.16142319      16.22822735
        16.29789447      16.35061183      16.36951460      16.35248519      16.31632873      16.27814425      16.24708494      16.22192139      16.20049603      16.18159693      16.16732261      16.15263122      16.13942629      16.12958245      16.12514374      16.12572909      16.13724601      16.15957641      16.18260861      16.20428418
        16.22287981      16.23556057      16.24397757      16.25257678      16.26296214      16.27455894      16.28948629      16.30762719      16.33223425      16.36160566      16.39293938      16.42405527      16.45415896      16.48291052      16.50505837      16.51946624      16.53236747      16.54362326      16.55449042      16.56721546
        16.57912943      16.59319302      16.60784623      16.62249870      16.63238877      16.63886054      16.64586945      16.65436069      16.66394626      16.67120733      16.67584735      16.67868375      16.68397879      16.69803220      16.72304700      16.75841233      16.79607707      16.82859266      16.85116298      16.85913592
        15.43841570      15.43899696      15.43932461      15.43914739      15.43983648      15.44299614      15.44799703      15.45411899      15.46148589      15.47005434      15.48149393      15.49374978      15.50713549      15.52154761      15.53544853      15.54838902      15.56012615      15.56809673      15.57017361      15.56752387
        15.60873116      15.65638025      15.70060247      15.73802310      15.76880049      15.79532682      15.81848284      15.83952772      15.86024660      15.88150377      15.90399572      15.93013961      15.96098047      15.99685335      16.03475665      16.07367858      16.11517509      16.16193791      16.21885974      16.28611029
        16.35804679      16.41920551      16.45681361      16.45786371      16.43510555      16.40189716      16.37011899      16.34181688      16.31821165      16.29600444      16.28043094      16.26816490      16.25734673      16.24846455      16.24285396      16.24088598      16.24699891      16.26335659      16.28455914      16.30471518
        16.32352105      16.33765522      16.34585059      16.35055442      16.35687767      16.36456684      16.37714483      16.39337529      16.41606804      16.44159016      16.46829076      16.49551400      16.52097537      16.54586076      16.56712555      16.58328067      16.59690511      16.61011261      16.62252713      16.63558461
        16.64990162      16.66530839      16.68042525      16.69565252      16.70905768      16.71903600      16.72867836      16.73904458      16.75033990      16.75975182      16.76790727      16.77639463      16.78960620      16.80763276      16.83464531      16.86802885      16.90271749      16.93444351      16.95662379      16.96571366
        15.47922116      15.47932166      15.47942771      15.47968191      15.48022530      15.48279034      15.48661880      15.49161897      15.49791167      15.50569189      15.51620135      15.52733138      15.54001581      15.55420535      15.56815071      15.58099450      15.59256661      15.59890202      15.59119217      15.53784225
        15.62687724      15.68902717      15.74132301      15.78618150      15.82409328      15.85674848      15.88557056      15.91017174      15.93166102      15.95259216      15.97479393      16.00094271      16.03145075      16.06450302      16.09896846      16.13320687      16.17105124      16.21573014      16.27206490      16.33929559
        16.40970802      16.47476612      16.52467044      16.54321932      16.53388030      16.51070448      16.48276203      16.45589195      16.43042531      16.40559372      16.38780929      16.37871593      16.37238649      16.36756045      16.36519204      16.36404140      16.36485695      16.37429655      16.39132062      16.41022149
        16.42815841      16.44151469      16.44743253      16.44619179      16.44532231      16.44899496      16.45764105      16.47205380      16.49096830      16.51252264      16.53526896      16.55856930      16.58035058      16.60095095      16.61916683      16.63610518      16.65089838      16.66581237      16.68040743      16.69389973
        16.70922846      16.72521711      16.74148600      16.75767100      16.77330321      16.78716467      16.79997104      16.81179786      16.82435141      16.83677500      16.84791112      16.86108360      16.87952668      16.90267409      16.93129996      16.96262897      16.99272826      17.02127315      17.04214280      17.05145986
        15.51949028      15.51898337      15.51896645      15.51956289      15.51965393      15.52113367      15.52368651      15.52751446      15.53280476      15.53971685      15.54856865      15.55867430      15.57050098      15.58395039      15.59770458      15.61087372      15.62296784      15.63326881      15.63895949      15.64239485
        15.68173040      15.73102453      15.78270702      15.83070555      15.87273371      15.90970107      15.94261976      15.97035221      15.99363898      16.01478018      16.03762234      16.06456651      16.09556535      16.12685837      16.15735097      16.18742449      16.22227246      16.26622139      16.32305759      16.38823041
        16.45533685      16.52106854      16.57730071      16.60989399      16.61420218      16.60168567      16.58148604      16.56043021      16.53606710      16.51097321      16.49221172      16.48440878      16.48233739      16.48264569      16.48602763      16.48907880      16.48830856      16.49123283      16.50206832      16.51898729
        16.53621296      16.54690177      16.54933896      16.54230685      16.53375465      16.53150722      16.53511315      16.54567320      16.56005579      16.57826133      16.59722986      16.61567625      16.63437011      16.65059092      16.66562307      16.68142752      16.69645830      16.71194749      16.72744049      16.74195834
        16.75735086      16.77393060      16.79132350      16.80948593      16.82743385      16.84535698      16.86126648      16.87593455      16.88994520      16.90555896      16.92061748      16.93728974      16.95755018      16.98295583      17.01130104      17.03959414      17.06582741      17.09045772      17.11024530      17.11972256
        15.55688276      15.55662954      15.55711092      15.55822168      15.55854728      15.55872573      15.55994115      15.56270827      15.56713610      15.57297253      15.57993748      15.58933219      15.60060074      15.61323347      15.62634588      15.63943616      15.65234688      15.66599729      15.68035755      15.69817983
        15.72936020      15.77273512      15.82279641      15.87132295      15.91506826      15.95503013      15.99106160      16.02190635      16.04756220      16.07063125      16.09480335      16.12237903      16.15272316      16.18252991      16.20939475      16.23703368      16.26978983      16.31318946      16.36934563      16.43252691
        16.49685000      16.55993917      16.61863908      16.65929381      16.67509267      16.67380541      16.66350490      16.64984410      16.63327197      16.61215824      16.59454244      16.58634152      16.58612200      16.59158585      16.60071916      16.60923500      16.61097455      16.60934950      16.61489568      16.62905195
        16.64366439      16.65212862      16.65154993      16.64025262      16.62318239      16.61397756      16.61173001      16.61668293      16.62650325      16.64028835      16.65561536      16.66971203      16.68432338      16.69680195      16.70874819      16.72195580      16.73606170      16.75068677      16.76540850      16.78036082
        16.79584667      16.81290279      16.83195725      16.85220726      16.87294674      16.89467966      16.91372145      16.93149783      16.94783029      16.96530892      16.98297763      17.00118880      17.02244692      17.04753150      17.07390243      17.09933251      17.12303352      17.14536548      17.16369518      17.17350664
        15.58959285      15.59070126      15.59215924      15.59448859      15.59612489      15.59608194      15.59635890      15.59756563      15.60062588      15.60584928      15.61169077      15.62046485      15.63168024      15.64336486      15.65560230      15.66808400      15.68165815      15.69736416      15.71613786      15.73905107
        15.76983357      15.81091508      15.85932129      15.90788992      15.95284082      15.99499647      16.03316795      16.06612945      16.09421380      16.11932931      16.14466633      16.17233577      16.20105112      16.22903798      16.25339923      16.27975892      16.31143262      16.35436221      16.40945620      16.47174819
        16.53389183      16.59300682      16.65064180      16.69541041      16.71986696      16.72909316      16.72892258      16.72319593      16.71653583      16.70495621      16.69242897      16.68480466      16.68479405      16.69287542      16.70561399      16.72009558      16.72819035      16.72745034      16.72858554      16.73768379
        16.74900570      16.75597191      16.75226541      16.73685961      16.71234893      16.69479180      16.68711960      16.68611408      16.69069023      16.69959551      16.71082950      16.72127684      16.73140254      16.74044818      16.74914795      16.75953522      16.77209935      16.78557717      16.79884381      16.81281416
        16.82813105      16.84537406      16.86569482      16.88793516      16.91215492      16.93666409      16.95909369      16.97900172      16.99716176      17.01515615      17.03289966      17.05198895      17.07391297      17.09855622      17.12341838      17.14689028      17.16899813      17.19034097      17.20699089      17.21673133
        15.61957939      15.62188599      15.62477602      15.62852285      15.63168873      15.63278676      15.63311165      15.63294989      15.63447057      15.63862341      15.64480987      15.65338224      15.66410515      15.67516404      15.68631556      15.69783738      15.71210398      15.72901025      15.75015668      15.77485429
        15.80601769      15.84536927      15.89293309      15.94196949      15.98776190      16.03022875      16.06912764      16.10351269      16.13346250      16.16018152      16.18639888      16.21338385      16.24060388      16.26641385      16.28970892      16.31525609      16.34665321      16.38902408      16.44346876      16.50559160
        16.56620450      16.62191985      16.67674939      16.72382642      16.75517339      16.77326946      16.78243303      16.78519017      16.78606189      16.78494165      16.78136407      16.77823538      16.77972464      16.78742841      16.80158284      16.82032976      16.83642076      16.84336048      16.84372018      16.84831201
        16.85662784      16.86036272      16.85126211      16.82993853      16.80033802      16.77438494      16.76014839      16.75289801      16.75201585      16.75580201      16.76236265      16.76956115      16.77549701      16.78131489      16.78753356      16.79561719      16.80640291      16.81838681      16.83026823      16.84269986
        16.85722847      16.87434746      16.89549853      16.91974747      16.94701456      16.97408940      16.99883801      17.01975125      17.03860614      17.05614881      17.07314168      17.09215699      17.11453295      17.13906716      17.16338584      17.18525169      17.20636123      17.22638907      17.24173582      17.25029725
        15.64791654      15.65072086      15.65490822      15.65930827      15.66355584      15.66620128      15.66768578      15.66783823      15.66844085      15.67154757      15.67833939      15.68727426      15.69687666      15.70723165      15.71751514      15.72869260      15.74300600      15.76064080      15.78245787      15.80769996
        15.83856959      15.87662374      15.92291516      15.97182811      16.01739334      16.05877159      16.09783676      16.13332896      16.16465374      16.19229652      16.21847403      16.24481153      16.27148805      16.29596424      16.31886669      16.34385158      16.37536226      16.41722849      16.47115814      16.53380792
        16.59367197      16.64703072      16.69946638      16.74722757      16.78352122      16.80873695      16.82547816      16.83582980      16.84317919      16.84973200      16.85476691      16.85893203      16.86473191      16.87280637      16.88725957      16.90770652      16.92917492      16.94582901      16.95396207      16.95889284
        16.96364817      16.96230444      16.94708053      16.91678156      16.88190212      16.84907963      16.82734649      16.81406286      16.80697023      16.80547275      16.80756470      16.81183112      16.81511652      16.81882286      16.82325071      16.82974173      16.83835163      16.84862074      16.85940314      16.87047324
        16.88399649      16.90112090      16.92296415      16.94889517      16.97851077      17.00751223      17.03310711      17.05452648      17.07334232      17.09023855      17.10593206      17.12420616      17.14580167      17.17022107      17.19442433      17.21553400      17.23559764      17.25406388      17.26807673      17.27531806
        15.67514015      15.67791903      15.68259369      15.68709842      15.69149830      15.69568661      15.69861846      15.70042098      15.70161328      15.70478064      15.71150009      15.72038992      15.72943592      15.73902558      15.74848484      15.75990327      15.77402397      15.79204806      15.81352606      15.83879096
        15.86866201      15.90486486      15.94881123      15.99635470      16.04044694      16.08138926      16.11988804      16.15540448      16.18746048      16.21576941      16.24228305      16.26896439      16.29559217      16.31960026      16.34198930      16.36658230      16.39827678      16.44005171      16.49365561      16.55669680