# File generated by Flopy version 3.7.0 on 06/20/2024 at 16:47:52.
BEGIN options
END options

BEGIN griddata
  strt
    INTERNAL  FACTOR  1.0
        15.00000000      15.00000000      15.00000000      15.00000000      15.00000000      15.00000000      15.00000000      15.00000000      15.00000000      15.00000000      15.00000000      15.00000000      15.00000000      15.00000000      15.00000000      15.00000000      15.00000000      15.00000000      15.00000000      15.00000000
        15.00000000      15.00000000      15.00000000      15.00000000      15.00000000      15.00000000      15.00000000      15.00000000      15.00000000      15.00000000      15.00000000      15.00000000      15.00000000      15.00000000      15.00000000      15.00000000      15.00000000      15.00000000      15.00000000      15.00000000
        15.00000000      15.00000000      15.00000000      15.00000000      15.00000000      15.00000000      15.00000000      15.00000000      15.00000000      15.00000000      15.00000000      15.00000000      15.00000000      15.00000000      15.00000000      15.00000000      15.00000000      15.00000000      15.00000000      15.00000000
        15.00000000      15.00000000      15.00000000      15.00000000      15.00000000      15.00000000      15.00000000      15.00000000      15.00000000      15.00000000      15.00000000      15.00000000      15.00000000      15.00000000      15.00000000      15.00000000      15.00000000      15.00000000      15.00000000      15.00000000
        15.00000000      15.00000000      15.00000000      15.00000000      15.00000000      15.00000000      15.00000000      15.00000000      15.00000000      15.00000000      15.00000000      15.00000000      15.00000000      15.00000000      15.00000000      15.00000000      15.00000000      15.00000000      15.00000000      15.00000000
        15.01128474      15.01114880      15.01110208      15.01119869      15.01118889      15.01087214      15.01025739      15.00937817      15.00837548      15.00707278      15.00573519      15.00443189      15.00316017      15.00199847      15.00101948      15.00029181      14.99978901      14.99945472      14.99930801      14.99937957
        14.99969054      15.00012111      15.00062830      15.00132628      15.00217012      15.00310079      15.00415880      15.00542885      15.00683588      15.00808969      15.00911809      15.00990674      15.01071888      15.01134821      15.01178751      15.01223814      15.01308333      15.01429419      15.01551166      15.01674170
        15.01898187      15.02244173      15.02624802      15.03020583      15.03373584      15.03737762      15.04032859      15.04303643      15.04579761      15.05063725      15.05582375      15.06089374      15.06619695      15.07060417      15.07507767      15.07706479      15.07698996      15.07663976      15.07485260      15.07327162
        15.07134371      15.06850329      15.06458106      15.06011092      15.05532248      15.05079128      15.04689820      15.04451979      15.04294254      15.04172249      15.04054132      15.04046256      15.04174592      15.04541264      15.05038438      15.05710745      15.06509694      15.07353668      15.08155918      15.09139622
        15.09992431      15.10594814      15.11012323      15.11227191      15.11268104      15.11234859      15.11118826      15.11037642      15.11247925      15.11717106      15.12361465      15.13548997      15.14911658      15.16075030      15.17043829      15.18157363      15.19476670      15.20318561      15.20742608      15.20967064
        15.02090119      15.02081111      15.02080280      15.02081553      15.02036176      15.01939332      15.01787119      15.01586268      15.01364318      15.01117277      15.00878006      15.00654733      15.00432098      15.00213601      15.00020551      14.99868698      14.99756294      14.99679421      14.99641507      14.99650205
        14.99702674      14.99786804      14.99893000      15.00038442      15.00217465      15.00423571      15.00662172      15.00935064      15.01213157      15.01448957      15.01646878      15.01830917      15.02009210      15.02162414      15.02306027      15.02489968      15.02760496      15.03072931      15.03407057      15.03797618
        15.04406395      15.05279426      15.06203317      15.07093416      15.07819196      15.08478220      15.08998552      15.09608146      15.10333003      15.11255455      15.12117772      15.12809890      15.13457363      15.13888817      15.14007300      15.13811882      15.13537602      15.13228021      15.12902446      15.12551299
        15.12142873      15.11594155      15.10996522      15.10390834      15.09762091      15.09197795      15.08758941      15.08540150      15.08379123      15.08347198      15.08507789      15.08996547      15.09741441      15.10785825      15.11930927      15.13144135      15.14468700      15.15990933      15.17621709      15.19264084
        15.20486184      15.21087629      15.21403940      15.21411751      15.21415550      15.21482525      15.21534210      15.21818866      15.22514652      15.23452634      15.24646359      15.26446948      15.28444992      15.30305652      15.32274031      15.34110158      15.35701830      15.36332400      15.36319402      15.36203898
        15.02956665      15.02951029      15.02922516      15.02862830      15.02732517      15.02543141      15.02296135      15.01991536      15.01667849      15.01332176      15.01006879      15.00687980      15.00351848      15.00004566      14.99687426      14.99420676      14.99209831      14.99064191      14.98994366      14.99000770
        14.99067270      14.99195284      14.99376892      14.99628040      14.99935313      15.00285010      15.00681352      15.01112718      15.01538972      15.01906380      15.02240577      15.02571186      15.02894671      15.03233687      15.03600907      15.04033262      15.04550658      15.05117628      15.05827462      15.06710746
        15.07932781      15.09336658      15.10556191      15.11607142      15.12487740      15.13303687      15.14017585      15.14851657      15.15799249      15.16809875      15.17653931      15.18125411      15.18412366      15.18478539      15.18256196      15.17846200      15.17382764      15.16889610      15.16490304      15.16145925
        15.15772546      15.15337218      15.14846201      15.14345562      15.13812518      15.13400529      15.13116821      15.13043770      15.13184512      15.13566578      15.14288017      15.15277560      15.16359095      15.17604809      15.18939407      15.20456199      15.22199332      15.24166763      15.26254030      15.28040823
        15.29159637      15.29680524      15.29944063      15.30142880      15.30464677      15.30844852      15.31274489      15.31878549      15.32797350      15.33955854      15.35378560      15.37165141      15.39281363      15.41592934      15.43999438      15.45955897      15.47059235      15.47257594      15.46972182      15.46629515
        15.03626814      15.03588070      15.03503745      15.03374860      15.03175664      15.02912921      15.02591747      15.02220207      15.01820764      15.01397482      15.00956434      15.00480743      14.99963737      14.99429478      14.98934087      14.98496216      14.98118403      14.97847940      14.97738466      14.97758018
        14.97863745      14.98082129      14.98404123      14.98824129      14.99320174      14.99856492      15.00427114      15.01022692      15.01612914      15.02145842      15.02667324      15.03205291      15.03768760      15.04374082      15.05020359      15.05745756      15.06615634      15.07648906      15.08893665      15.10239064
        15.11764135      15.13221815      15.14318204      15.15218416      15.16059848      15.16949607      15.17862867      15.18803514      15.19722056      15.20588453      15.21162527      15.21348378      15.21358851      15.21193700      15.20902200      15.20500201      15.20056238      15.19599024      15.19205557      15.18922358
        15.18737141      15.18582786      15.18420011      15.18263188      15.18114104      15.18050933      15.18067377      15.18322749      15.18853188      15.19482809      15.20293487      15.21187013      15.22188621      15.23469126      15.25060232      15.26982012      15.29070340      15.31179467      15.33158668      15.34757077
        15.35781132      15.36413903      15.36951153      15.37587790      15.38167328      15.38684696      15.39270298      15.40034013      15.41099512      15.42309448      15.43801156      15.45611881      15.47719868      15.49860333      15.51891702      15.53320150      15.53967738      15.54135679      15.53999626      15.53839500
        15.03978209      15.03914722      15.03797713      15.03628962      15.03387757      15.03078169      15.02705149      15.02267135      15.01768530      15.01177969      15.00522493      14.99821605      14.99074525      14.98310680      14.97559397      14.96825770      14.96219159      14.95829619      14.95638328      14.95659050
        14.95927161      14.96395536      14.96987830      14.97668528      14.98419706      14.99179196      14.99938884      15.00703191      15.01473323      15.02203637      15.02940153      15.03724651      15.04554966      15.05460046      15.06436059      15.07553107      15.08863221      15.10276621      15.11783836      15.13219514
        15.14607703      15.15868865      15.16845868      15.17693350      15.18567553      15.19578425      15.20534880      15.21365873      15.22024031      15.22543001      15.22815719      15.22855442      15.22810559      15.22670651      15.22470077      15.22195933      15.21899436      15.21621197      15.21381100      15.21281068
        15.21370485      15.21607308      15.21867157      15.22138220      15.22339280      15.22533442      15.22848214      15.23309277      15.23850886      15.24378405      15.24966789      15.25771109      15.26896711      15.28423928      15.30306517      15.32373919      15.34425106      15.36350529      15.38051704      15.39523701
        15.40686163      15.41574144      15.42355148      15.43083260      15.43700469      15.44285652      15.44938950      15.45781987      15.46924915      15.48281279      15.49872314      15.51667825      15.53473183      15.55090454      15.56493008      15.57360782      15.57852719      15.58101730      15.58130062      15.58043789
        15.04085406      15.04012812      15.03874152      15.03673394      15.03392438      15.03028890      15.02563946      15.01982945      15.01271565      15.00420173      14.99529897      14.98621958      14.97623367      14.96507416      14.95371120      14.94292459      14.93389986      14.92699493      14.92298679      14.92400835
        14.93061506      14.94061126      14.95149513      14.96185695      14.97200436      14.98190567      14.99165104      15.00142820      15.01123061      15.02066346      15.03044230      15.04100116      15.05220436      15.06448537      15.07736494      15.09133698      15.10641654      15.12149220      15.13683277      15.15041449
        15.16298040      15.17483873      15.18445818      15.19315308      15.20193113      15.21097919      15.21822275      15.22362289      15.22737255      15.23048646      15.23246090      15.23311015      15.23332510      15.23310970      15.23259465      15.23174210      15.23089183      15.23055662      15.23107029      15.23307782
        15.23700900      15.24250090      15.24801252      15.25271846      15.25606235      15.25902624      15.26302274      15.26708943      15.27141849      15.27636127      15.28307615      15.29278788      15.30549711      15.32168536      15.34077355      15.36045833      15.37906058      15.39667665      15.41300056      15.42767745
        15.43942143      15.44845425      15.45608189      15.46338114      15.47073994      15.47851792      15.48639420      15.49579972      15.50788405      15.52205629      15.53692324      15.55199309      15.56560744      15.57736036      15.58724107      15.59315152      15.59696887      15.59863641      15.59870351      15.59790381
        15.03971215      15.03884101      15.03707054      15.03447295      15.03082529      15.02597212      15.01955445      15.01139889      15.00198313      14.99160263      14.98106173      14.96942742      14.95503121      14.93824337      14.92155345      14.90589966      14.89103195      14.87935336      14.87585834      14.88161591
        14.89462251      14.91099724      14.92723038      14.94180484      14.95494647      14.96765346      14.97999356      14.99210262      15.00458845      15.01675242      15.02930477      15.04281097      15.05681061      15.07150517      15.08626775      15.10141285      15.11701294      15.13224578      15.14716225      15.15983880
        15.17133428      15.18201438      15.19084284      15.19872456      15.20600473      15.21275273      15.21797038      15.22191531      15.22504545      15.22804289      15.23050112      15.23209200      15.23338321      15.23450400      15.23556654      15.23664443      15.23799411      15.24009547      15.24330572      15.24779329
        15.25361904      15.26039359      15.26686339      15.27207197      15.27619734      15.27986482      15.28368991      15.28747057      15.29229498      15.29848823      15.30678543      15.31801760      15.33188729      15.34888543      15.36752385      15.38572608      15.40294353      15.41889813      15.43334966      15.44620706
        15.45664952      15.46496984      15.47257813      15.48075149      15.48936997      15.49875704      15.50804973      15.51806593      15.52941196      15.54188727      15.55424680      15.56617057      15.57657228      15.58503898      15.59178735      15.59558340      15.59816272      15.59932348      15.59954647      15.59913222
        15.03465175      15.03332549      15.03081293      15.02724273      15.02217864      15.01535585      15.00674985      14.99676910      14.98630912      14.97438107      14.96102958      14.94452976      14.92312614      14.89858060      14.87476246      14.85290241      14.83386220      14.82242633      14.82342633      14.83562515
        14.85495307      14.87653079      14.89695093      14.91558356      14.93219239      14.94791704      14.96342937      14.97873529      14.99434453      15.00959596      15.02518705      15.04153447      15.05794327      15.07480949      15.09095794      15.10663631      15.12231118      15.13724633      15.15112634      15.16224172
        15.17186078      15.18109582      15.18903547      15.19586677      15.20183831      15.20735176      15.21214926      15.21615191      15.21945574      15.22270759      15.22581017      15.22831312      15.23058210      15.23291590      15.23541383      15.23813444      15.24121752      15.24506404      15.24999838      15.25585667
        15.26258983      15.26993305      15.27678877      15.28255378      15.28723050      15.29142992      15.29580596      15.30057452      15.30661853      15.31430972      15.32406393      15.33697472      15.35199111      15.36874601      15.38563529      15.40180977      15.41655939      15.42947960      15.44157275      15.45308564
        15.46297504      15.47135229      15.47930511      15.48780557      15.49698701      15.50690408      15.51623225      15.52537738      15.53518057      15.54571369      15.55591416      15.56514499      15.57222275      15.57759094      15.58208101      15.58493467      15.58727751      15.58853247      15.58882452      15.58838470
        15.02237219      15.02043078      15.01690320      15.01164486      15.00459300      14.99582545      14.98575072      14.97499451      14.96300143      14.94785317      14.92915746      14.90538018      14.87597522      14.84538387      14.81734559      14.79324560      14.77591123      14.76855662      14.77227870      14.78696490
        14.81040257      14.83557372      14.85965009      14.88248446      14.90386786      14.92380118      14.94293846      14.96173926      14.98068265      14.99908718      15.01750461      15.03678462      15.05586461      15.07460895      15.09156716      15.10743983      15.12273591      15.13646375      15.14866863      15.15856256
        15.16737772      15.17587859      15.18315262      15.18925872      15.19467506      15.19994538      15.20479176      15.20906844      15.21271792      15.21627100      15.21980766      15.22309277      15.22627868      15.22958940      15.23321627      15.23717879      15.24153058      15.24666313      15.25263484      15.25902099
        15.26606123      15.27378301      15.28110817      15.28740730      15.29263555      15.29760070      15.30298759      15.30899524      15.31630805      15.32525703      15.33623734      15.34979127      15.36417359      15.37892063      15.39350020      15.40731725      15.41964782      15.43091810      15.44237924      15.45358056
        15.46305155      15.47110578      15.47897928      15.48738477      15.49623295      15.50555233      15.51404909      15.52198998      15.53020130      15.53872363      15.54626827      15.55252931      15.55757496      15.56199483      15.56608676      15.56912035      15.57148515      15.57276799      15.57301117      15.57270604
        14.99933254      14.99718502      14.99294925      14.98655083      14.97800913      14.96817918      14.95763278      14.94577270      14.93089991      14.91044532      14.88491075      14.85461602      14.81979187      14.78604752      14.75775300      14.73576771      14.72114466      14.71503280      14.71883273      14.74212448
        14.75024882      14.71857503      14.72835212      14.75811887      14.78737612      14.81734755      14.84549945      14.87165880      14.89617007      14.91940619      14.94198280      14.96442175      14.98567775      15.00654975      15.02798861      15.04944743      15.07017475      15.08785174      15.10340148      15.11773252
        15.13033630      15.14167293      15.15123734      15.15997798      15.16842339      15.17548353      15.18139748      15.18670120      15.19173706      15.19650861      15.20088525      15.20491554      15.20906623      15.21338274      15.21750178      15.22161188      15.22583122      15.23030655      15.23517921      15.24043253
        15.24623068      15.25258879      15.25784943      15.26081238      15.25737993      15.26073648      15.26666614      15.27487346      15.28265359      15.28941710      15.29524219      15.30100628      15.30721054      15.31396757      15.32191760      15.33138323      15.34244273      15.35496069      15.36757893      15.38044053
        15.39337566      15.40590481      15.41748169      15.42821760      15.43913863      15.44984948      15.45899483      15.46689060      15.47443466      15.48219578      15.49028810      15.49865124      15.50610156      15.51277684      15.51917322      15.52551683      15.53136360      15.53682737      15.54200108      15.54696671
        15.55144078      15.55468981      15.55713170      15.55856254      15.55899731      15.55891278      14.96431560      14.96272319      14.95930195      14.95356299      14.94491623      14.93485641      14.92324021      14.90856999      14.88868622      14.86182759      14.83069130      14.79641082      14.76019363      14.72761801
        14.70177730      14.68164037      14.66614339      14.65831783      14.67364971      14.67962507      14.64966926      14.65221378      14.69326304      14.69806859      14.68009786      14.68597484      14.68836919      14.67975135      14.68266636      14.68387561      14.67965042      14.68064772      14.70384809      14.70824975
        14.69136688      14.69369860      14.68544296      14.68650629      14.68207089      14.68366524      14.68777894      14.69633351      14.66479618      14.67196283      14.67573272      14.67720748      14.67295177      14.67396284      14.66626728      14.66831275      14.65316793      14.65666664      14.67863456      14.67980222
        14.67557456      14.67691323      14.68013920      14.67147836      14.67429505      14.68150799      14.66300297      14.66954268      14.71238815      14.72342696      14.68705043      14.70200816      14.73860322      14.77357405      14.80620866      14.83663192      14.86486208      14.89153942      14.91716107      14.94240684
        14.96669294      14.99073603      15.01450384      15.03718673      15.05913036      15.07767610      15.09353914      15.10789689      15.12058849      15.13204765      15.14182558      15.15080129      15.15958800      15.16702549      15.17324086      15.17877300      15.18373301      15.18835205      15.19276588      15.19707086
        15.20176737      15.20697840      15.21199826      15.21680427      15.22174164      15.22696861      15.23259551      15.23839365      15.24464730      15.25019203      15.25294193      15.24942137      15.25205510      15.25591608      15.25741576      15.25540729      15.25674525      15.25743954      15.25648256      15.25713285
        15.25748734      15.25701632      15.25740697      15.25930899      15.26090006      15.25841898      15.25924158      15.25799464      15.25838494      15.25786912      15.25832273      15.25908208      15.26062351      15.25490998      15.25626654      15.25692285      15.25733255      15.25688769      15.25725343      15.25616485
        15.25690710      15.25463816      15.25617228      15.25778660      15.25823396      15.25776757      15.25816231      15.25888833      15.25791586      15.25871735      15.26022972      15.25813037      15.25979644      15.26415869      15.26758868      15.26343729      15.26706125      15.27438903      15.28288744      15.28999299
        15.29610165      15.30216519      15.30851787      15.31540450      15.32328564      15.33233733      15.34261290      15.35399918      15.36548333      15.37728961      15.38922538      15.40093679      15.41204442      15.42236517      15.43275034      15.44313356      15.45230023      15.46026094      15.46775023      15.47504432
        15.48236377      15.48983584      15.49642890      15.50198007      15.50701538      15.51245196      15.51846948      15.52445429      15.52999808      15.53502294      15.53950716      15.54300882      15.54578836      15.54754536      15.54830077      15.54849973      14.91952756      14.91838739      14.91579264      14.91082182
        14.90266903      14.89138518      14.87683469      14.85852748      14.83503855      14.80503566      14.77346500      14.74109953      14.70859954      14.67803582      14.65248658      14.63076413      14.61349689      14.60599198      14.61223018      14.63534363      14.64648280      14.61791100      14.62788515      14.65824013
        14.69229860      14.72775065      14.76169117      14.79426433      14.82506950      14.85507885      14.88500450      14.91465297      14.94178385      14.96845629      14.99530147      15.02006864      15.04303475      15.06271583      15.07999067      15.09553254      15.10884602      15.12109899      15.13172982      15.14129220
        15.15065483      15.15863793      15.16503936      15.17049506      15.17551125      15.18023533      15.18481720      15.18949231      15.19466541      15.20041491      15.20617938      15.21168879      15.21725128      15.22302984      15.22921876      15.23546869      15.24188459      15.24874535      15.25451665      15.25810714
        15.25360652      15.25677457      15.26379617      15.27275302      15.28126072      15.28835869      15.29445855      15.30048230      15.30671542      15.31348699      15.32129019      15.32999860      15.33946794      15.34993271      15.36063791      15.37176022      15.38309586      15.39420386      15.40506559      15.41535322
        15.42544855      15.43549326      15.44450317      15.45241331      15.45991119      15.46727043      15.47452641      15.48161915      15.48770294      15.49272671      15.49752328      15.50292138      15.50896784      15.51511833      15.52071464      15.52561195      15.53014768      15.53385597      15.53678250      15.53880278
        15.53979060      15.54022438      14.87148728      14.87078998      14.86822031      14.86208718      14.85197371      14.83895095      14.82362201      14.80524465      14.78258365      14.75451211      14.72516717      14.69401344      14.66058254      14.62932961      14.60373907      14.58307844      14.56948028      14.56551467
        14.57272865      14.59180234      14.61789923      14.64953971      14.68255803      14.71520565      14.74755777      14.77981983      14.81306534      14.84694771      14.88201978      14.91434476      14.94486417      14.97431219      15.00136801      15.02635232      15.04745476      15.06557822      15.08233173      15.09678102
        15.10977692      15.12134470      15.13158857      15.14138346      15.14980619      15.15635099      15.16165742      15.16646080      15.17121307      15.17603433      15.18109156      15.18673534      15.19303912      15.19938351      15.20550149      15.21160178      15.21795758      15.22458502      15.23119945      15.23785439
        15.24485434      15.25210655      15.26006653      15.26882197      15.27707408      15.28415022      15.29034358      15.29647648      15.30289864      15.30968640      15.31728089      15.32578869      15.33507025      15.34514162      15.35533347      15.36596166      15.37697364      15.38778236      15.39825235      15.40836614
        15.41827216      15.42793164      15.43673413      15.44457312      15.45188916      15.45908307      15.46630564      15.47345849      15.47961471      15.48464642      15.48941605      15.49469253      15.50056717      15.50656194      15.51216849      15.51728187      15.52204883      15.52580713      15.52864640      15.53074446
        15.53207573      15.53257921      14.82748299      14.82606891      14.82165548      14.81352319      14.80278107      14.79067706      14.77634638      14.75889788      14.73642721      14.70806997      14.67683677      14.64428942      14.61091929      14.58224748      14.56033426      14.54507031      14.53664464      14.53578757
        14.54369033      14.56100463      14.58581898      14.61557107      14.64678300      14.67798020      14.71001302      14.74256975      14.77725262      14.81393946      14.85231992      14.88811148      14.92156563      14.95378485      14.98311058      15.00995688      15.03216254      15.05108433      15.06875632      15.08423972
        15.09794414      15.11012296      15.12098847      15.13094540      15.13914340      15.14573077      15.15110677      15.15595839      15.16086364      15.16604525      15.17155532      15.17751796      15.18413220      15.19088795      15.19754163      15.20402114      15.21064496      15.21754916      15.22428723      15.23101016
        15.23821059      15.24565886      15.25358003      15.26220906      15.27066468      15.27813997      15.28482891      15.29143029      15.29822738      15.30519687      15.31273331      15.32106200      15.33011753      15.34005617      15.35019211      15.36065774      15.37144531      15.38214337      15.39243851      15.40202776
        15.41153246      15.42101349      15.42958900      15.43718325      15.44426587      15.45126162      15.45828742      15.46524217      15.47141549      15.47667472      15.48152058      15.48665875      15.49238733      15.49838598      15.50410958      15.50931355      15.51410414      15.51802004      15.52113778      15.52349667
        15.52508821      15.52572539      14.78848494      14.78545195      14.77948449      14.77190011      14.76277823      14.75148451      14.73668614      14.71816982      14.69358843      14.66259410      14.63026861      14.59825987      14.56808596      14.54403053      14.52715893      14.51594660      14.51043329      14.51159915
        14.52037959      14.53700716      14.56033259      14.58837458      14.61878574      14.64934088      14.68145545      14.71535819      14.75111282      14.78937492      14.82909558      14.86615073      14.90108507      14.93500685      14.96572179      14.99378139      15.01680095      15.03594810      15.05429960      15.07086540
        15.08535000      15.09768202      15.10841771      15.11807946      15.12605203      15.13266521      15.13846523      15.14397460      15.14969657      15.15548646      15.16127024      15.16740752      15.17401461      15.18068535      15.18741696      15.19421161      15.20090409      15.20781635      15.21459310      15.22129231
        15.22854693      15.23633425      15.24485156      15.25387778      15.26285154      15.27116403      15.27868696      15.28606466      15.29349433      15.30080339      15.30843512      15.31665175      15.32535046      15.33494398      15.34507725      15.35556090      15.36623704      15.37683170      15.38707635      15.39654897
        15.40574162      15.41495634      15.42343610      15.43093446      15.43788926      15.44455971      15.45115593      15.45783225      15.46394525      15.46934146      15.47439285      15.47960040      15.48535217      15.49143672      15.49736316      15.50279889      15.50775917      15.51186331      15.51524064      15.51785017
        15.51943018      15.52005479      14.75661479      14.75352831      14.74872469      14.74239054      14.73358381      14.72175746      14.70549500      14.68421721      14.65612183      14.62223130      14.58865362      14.55777127      14.53138102      14.51134112      14.49772697      14.48927922      14.48636566      14.48923005
        14.49834735      14.51406679      14.53609886      14.56273626      14.59220965      14.62287836      14.65499135      14.69001296      14.72700370      14.76617109      14.80742478      14.84591308      14.88223934      14.91794871      14.94960842      14.97775187      15.00117084      15.02092190      15.03956865      15.05665632