# File generated by Flopy version 3.6.0 on 02/14/2025 at 13:48:58.
BEGIN griddata
  strt
    INTERNAL  FACTOR  1.0
        15.00000000      15.00000000      15.00000000      15.00000000      15.00000000      15.00000000      15.00000000      15.00000000      15.00000000      15.00000000      15.00000000      15.00000000      15.00000000      15.00000000      15.00000000      15.00000000      15.00000000      15.00000000      15.00000000      15.00000000
        15.00000000      15.00000000      15.00000000      15.00000000      15.00000000      15.00000000      15.00000000      15.00000000      15.00000000      15.00000000      15.00000000      15.00000000      15.00000000      15.00000000      15.00000000      15.00000000      15.00000000      15.00000000      15.00000000      15.00000000
        15.00000000      15.00000000      15.00000000      15.00000000      15.00000000      15.00000000      15.00000000      15.00000000      15.00000000      15.00000000      15.00000000      15.00000000      15.00000000      15.00000000      15.00000000      15.00000000      15.00000000      15.00000000      15.00000000      15.00000000
        15.00000000      15.00000000      15.00000000      15.00000000      15.00000000      15.00000000      15.00000000      15.00000000      15.00000000      15.00000000      15.00000000      15.00000000      15.00000000      15.00000000      15.00000000      15.00000000      15.00000000      15.00000000      15.00000000      15.00000000
        15.00000000      15.00000000      15.00000000      15.00000000      15.00000000      15.00000000      15.00000000      15.00000000      15.00000000      15.00000000      15.00000000      15.00000000      15.00000000      15.00000000      15.00000000      15.00000000      15.00000000      15.00000000      15.00000000      15.00000000
        15.07614625      15.07817686      15.08243025      15.08816960      15.09362757      15.09680463      15.09230718      15.08236139      15.07093238      15.05841250      15.04763857      15.03822533      15.03080457      15.02625740      15.02343907      15.02048189      15.01696643      15.01302989      15.00967073      15.00729165
        15.00540838      15.00402777      15.00318112      15.00275230      15.00248838      15.00232417      15.00223834      15.00221273      15.00224761      15.00230038      15.00232798      15.00234476      15.00232132      15.00228031      15.00227433      15.00229936      15.00231086      15.00237662      15.00245119      15.00256818
        15.00276914      15.00300112      15.00325726      15.00361272      15.00402641      15.00438169      15.00474691      15.00521453      15.00577326      15.00631495      15.00679219      15.00737263      15.00817512      15.00926813      15.01061250      15.01213587      15.01376704      15.01584914      15.01856927      15.02163296
        15.02501551      15.02929522      15.03356531      15.03721760      15.03884890      15.03863315      15.03792841      15.03662136      15.03416406      15.03075206      15.02786948      15.02533163      15.02329473      15.02232860      15.02172343      15.02148884      15.02209766      15.02326259      15.02467798      15.02618144
        15.02697966      15.02621665      15.02480424      15.02259680      15.02080234      15.01984672      15.01973143      15.01999211      15.01993334      15.02005204      15.02008817      15.02040090      15.02124706      15.02213416      15.02341399      15.02497657      15.02596265      15.02641558      15.02664945      15.02635180
        15.12391029      15.12676850      15.13215853      15.13985669      15.14842741      15.15370309      15.14841491      15.13334966      15.11580035      15.09726979      15.08008124      15.06595016      15.05427322      15.04617286      15.04095173      15.03616860      15.03060293      15.02436519      15.01847503      15.01402988
        15.01065113      15.00817156      15.00658657      15.00570803      15.00520121      15.00486360      15.00468781      15.00463442      15.00467943      15.00477783      15.00484935      15.00489958      15.00489148      15.00480907      15.00473495      15.00478581      15.00486312      15.00497645      15.00516364      15.00538220
        15.00569036      15.00614591      15.00664082      15.00720921      15.00792693      15.00860670      15.00931467      15.01013860      15.01107645      15.01192992      15.01269613      15.01369769      15.01509131      15.01692383      15.01927791      15.02201530      15.02510328      15.02887090      15.03370894      15.03950491
        15.04585327      15.05290643      15.06005617      15.06656779      15.07094777      15.07186877      15.07116711      15.06963684      15.06633249      15.06169397      15.05699736      15.05267805      15.04911073      15.04705289      15.04610520      15.04596750      15.04692270      15.04838435      15.05026071      15.05258406
        15.05406710      15.05371385      15.05195329      15.04903296      15.04569095      15.04310104      15.04182740      15.04191840      15.04208084      15.04208663      15.04205611      15.04219023      15.04338409      15.04487295      15.04697732      15.04973136      15.05187709      15.05323591      15.05372924      15.05357527
        15.14645755      15.14953472      15.15548686      15.16330891      15.17133912      15.17595251      15.17122796      15.15551622      15.13630080      15.11704042      15.09864542      15.08298986      15.07002816      15.06023891      15.05357990      15.04793530      15.04129303      15.03383471      15.02665045      15.02059913
        15.01595741      15.01251796      15.01032818      15.00901460      15.00825904      15.00776004      15.00743483      15.00733225      15.00739533      15.00751721      15.00763902      15.00770120      15.00770719      15.00761928      15.00752026      15.00755371      15.00770984      15.00788512      15.00814216      15.00842669
        15.00877845      15.00932367      15.00996805      15.01069992      15.01158818      15.01257816      15.01361619      15.01469122      15.01579012      15.01680877      15.01783010      15.01912474      15.02087637      15.02322970      15.02626924      15.02993933      15.03431165      15.03969353      15.04622717      15.05409604
        15.06270694      15.07205953      15.08178039      15.09080398      15.09772885      15.10078844      15.10117977      15.10011749      15.09740990      15.09261375      15.08682573      15.08154659      15.07669814      15.07341576      15.07204465      15.07216908      15.07336975      15.07476519      15.07655236      15.07908314
        15.08104139      15.08145197      15.07995071      15.07713896      15.07292197      15.06887919      15.06641406      15.06575248      15.06605487      15.06616464      15.06611424      15.06616123      15.06730216      15.06910999      15.07168823      15.07481218      15.07778648      15.07984100      15.08059279      15.08091456
        15.14900385      15.15154051      15.15724516      15.16373823      15.16932683      15.17181146      15.16743364      15.15423557      15.13719306      15.12012159      15.10384889      15.08957366      15.07775828      15.06867122      15.06195383      15.05638765      15.04969854      15.04177423      15.03413005      15.02713074
        15.02145298      15.01725834      15.01450846      15.01280815      15.01177856      15.01112878      15.01067622      15.01046430      15.01047377      15.01061355      15.01080445      15.01086486      15.01084898      15.01078400      15.01071047      15.01071143      15.01087725      15.01110557      15.01134563      15.01163235
        15.01201323      15.01257245      15.01330173      15.01411154      15.01510895      15.01632902      15.01761116      15.01879159      15.01993293      15.02105994      15.02226941      15.02378786      15.02582420      15.02856534      15.03208409      15.03645083      15.04204079      15.04895480      15.05687076      15.06602880
        15.07646957      15.08802362      15.09991394      15.11139153      15.12076115      15.12653498      15.12894672      15.12932985      15.12797898      15.12388098      15.11752707      15.11129455      15.10550539      15.10125454      15.09918830      15.09920046      15.10029454      15.10161591      15.10324893      15.10551718
        15.10778294      15.10874837      15.10797977      15.10544003      15.10130412      15.09651769      15.09337074      15.09170004      15.09164879      15.09235166      15.09304406      15.09363122      15.09467433      15.09627909      15.09826720      15.10092282      15.10407148      15.10654400      15.10780287      15.10855863
        15.13619826      15.13783275      15.14154346      15.14555611      15.14849911      15.14957598      15.14603501      15.13643725      15.12340191      15.11004886      15.09745044      15.08669173      15.07790385      15.07101956      15.06571516      15.06103290      15.05530419      15.04801031      15.04064178      15.03357983
        15.02726127      15.02239297      15.01916506      15.01708896      15.01577872      15.01498063      15.01447035      15.01416754      15.01408700      15.01417773      15.01439810      15.01445785      15.01437444      15.01430913      15.01427300      15.01426655      15.01439394      15.01459837      15.01478770      15.01500345
        15.01536382      15.01592733      15.01668405      15.01753955      15.01859953      15.01990742      15.02124679      15.02244333      15.02362720      15.02482107      15.02617980      15.02791799      15.03025178      15.03330568      15.03713955      15.04206487      15.04870267      15.05686948      15.06600668      15.07631655
        15.08815359      15.10145719      15.11546204      15.12933125      15.14139299      15.14976713      15.15472598      15.15723061      15.15781604      15.15537989      15.14949770      15.14245190      15.13586859      15.13070241      15.12770908      15.12706758      15.12792619      15.12924839      15.13088160      15.13292067
        15.13506018      15.13666853      15.13702415      15.13538425      15.13177483      15.12729257      15.12334965      15.12073734      15.12000779      15.12122515      15.12304950      15.12457851      15.12580194      15.12693807      15.12770217      15.12921517      15.13178613      15.13457334      15.13652360      15.13719908
        15.11318327      15.11384317      15.11530909      15.11697365      15.11804911      15.11828071      15.11533684      15.10899235      15.10039020      15.09180109      15.08365294      15.07689179      15.07169446      15.06748460      15.06426234      15.06131268      15.05751584      15.05219682      15.04611307      15.03977544
        15.03355621      15.02814886      15.02441197      15.02200809      15.02043434      15.01946452      15.01892390      15.01859992      15.01846630      15.01846137      15.01862920      15.01864178      15.01844311      15.01831031      15.01825368      15.01822968      15.01834364      15.01850752      15.01865299      15.01877686
        15.01904735      15.01953198      15.02024006      15.02112344      15.02218539      15.02344391      15.02466556      15.02585004      15.02701920      15.02825212      15.02977516      15.03172584      15.03431055      15.03761430      15.04163987      15.04696533      15.05436709      15.06360454      15.07390184      15.08526673
        15.09809039      15.11271440      15.12847942      15.14477722      15.15951155      15.17107198      15.17930420      15.18459217      15.18778349      15.18734964      15.18278053      15.17513214      15.16804870      15.16257896      15.15875580      15.15698137      15.15747540      15.15915775      15.16108612      15.16325093
        15.16503276      15.16690414      15.16862114      15.16892987      15.16643654      15.16236233      15.15751162      15.15357075      15.15167700      15.15283872      15.15552396      15.15814460      15.15990999      15.16078235      15.16096393      15.16102607      15.16218007      15.16480213      15.16715088      15.16805815
        15.08484410      15.08474342      15.08486158      15.08511194      15.08497250      15.08426281      15.08202095      15.07774589      15.07289180      15.06892734      15.06532910      15.06245486      15.06055271      15.05935305      15.05845883      15.05774681      15.05648655      15.05399533      15.05023007      15.04545174
        15.04010758      15.03470848      15.03046763      15.02770861      15.02590951      15.02474129      15.02408348      15.02374426      15.02362651      15.02359928      15.02363494      15.02351957      15.02318877      15.02285764      15.02273037      15.02265568      15.02271092      15.02280297      15.02288450      15.02294955
        15.02309389      15.02340396      15.02397527      15.02479471      15.02583028      15.02695737      15.02803485      15.02914279      15.03025271      15.03154696      15.03313986      15.03521259      15.03795152      15.04143902      15.04559717      15.05117640      15.05911129      15.06900058      15.07995092      15.09202881
        15.10571434      15.12141503      15.13861029      15.15678375      15.17415961      15.18965061      15.20172336      15.21046518      15.21705952      15.21938160      15.21717201      15.21052266      15.20237275      15.19642616      15.19211922      15.18951581      15.18933005      15.19147723      15.19395191      15.19648792
        15.19820546      15.20040866      15.20339632      15.20561265      15.20547385      15.20181859      15.19640382      15.19081143      15.18730570      15.18740045      15.19037861      15.19396407      15.19654240      15.19763492      15.19780697      15.19682560      15.19631353      15.19756916      15.19999759      15.20132643
        15.05368551      15.05371225      15.05349617      15.05300157      15.05156051      15.04986089      15.04828105      15.04600841      15.04404512      15.04340244      15.04374292      15.04494275      15.04612833      15.04807195      15.04990951      15.05155478      15.05294729      15.05350086      15.05259825      15.05011085
        15.04635800      15.04169351      15.03728945      15.03424091      15.03217267      15.03083111      15.02994852      15.02949298      15.02941846      15.02943569      15.02933063      15.02909823      15.02864991      15.02810380      15.02783728      15.02764786      15.02750575      15.02741057      15.02735864      15.02733147
        15.02732848      15.02744986      15.02779448      15.02843723      15.02937946      15.03036933      15.03132604      15.03229666      15.03337227      15.03466295      15.03624087      15.03833906      15.04117719      15.04480905      15.04911938      15.05484530      15.06285507      15.07284883      15.08397178      15.09625310
        15.11048173      15.12710408      15.14579510      15.16583829      15.18602315      15.20484514      15.22082379      15.23361481      15.24444387      15.25102342      15.25241141      15.24894539      15.24077860      15.23332650      15.22845675      15.22521229      15.22420753      15.22611658      15.22929458      15.23184733
        15.23404870      15.23744071      15.24162288      15.24492785      15.24622883      15.24405455      15.23904365      15.23288712      15.22843554      15.22685608      15.22942670      15.23342604      15.23655157      15.23775128      15.23729118      15.23552044      15.23392619      15.23312058      15.23470408      15.23627960
        15.02242700      15.02268453      15.02256612      15.02151265      15.01903641      15.01690016      15.01501465      15.01419457      15.01430446      15.01602582      15.01937728      15.02468705      15.02972658      15.03481842      15.03962672      15.04365364      15.04729546      15.05050765      15.05248220      15.05264204
        15.05122847      15.04823647      15.04451076      15.04145311      15.03917661      15.03762197      15.03656779      15.03588446      15.03569929      15.03570290      15.03556075      15.03530420      15.03486976      15.03423729      15.03372307      15.03340985      15.03299554      15.03255272      15.03218244      15.03193792
        15.03174678      15.03162142      15.03172675      15.03212510      15.03287733      15.03369384      15.03447715      15.03532699      15.03636234      15.03759489      15.03916398      15.04123818      15.04411727      15.04783111      15.05229571      15.05806511      15.06578907      15.07533013      15.08626009      15.09863081
        15.11312611      15.13040412      15.15058378      15.17276624      15.19556910      15.21730163      15.23688255      15.25418677      15.26990622      15.28180311      15.28805785      15.28907699      15.28388732      15.27560250      15.26937088      15.26544228      15.26348447      15.26452643      15.26771626      15.27003106
        15.27297970      15.27745845      15.28212835      15.28590294      15.28751467      15.28704741      15.28366373      15.27855120      15.27377815      15.27148701      15.27304494      15.27716883      15.27987099      15.28050710      15.27898100      15.27627666      15.27340679      15.27074569      15.27017265      15.27097044
        14.99158780      14.99196754      14.99151112      14.98979050      14.98709368      14.98422370      14.98113680      14.97993051      14.98069326      14.98460521      14.99122033      15.00046722      15.01037159      15.01923662      15.02724552      15.03400877      15.03989355      15.04532450      15.05000250      15.05309648
        15.05452601      15.05402857      15.05188132      15.04932615      15.04706159      15.04524271      15.04399106      15.04298681      15.04249491      15.04234131      15.04221805      15.04198691      15.04163623      15.04098369      15.04025685      15.03976505      15.03911069      15.03822046      15.03738654      15.03676857
        15.03627814      15.03585433      15.03569204      15.03582303      15.03625602      15.03680676      15.03740377      15.03818077      15.03914896      15.04032861      15.04184678      15.04388598      15.04676721      15.05050762      15.05505995      15.06071786      15.06795007      15.07694596      15.08772119      15.10011701
        15.11453904      15.13195939      15.15318984      15.17761397      15.20315125      15.22787240      15.25125261      15.27334876      15.29447771      15.31253533      15.32528318      15.33289654      15.33327570      15.32603475      15.31760101      15.31229899      15.30895674      15.30844870      15.31072460      15.31314903
        15.31604497      15.32052184      15.32498468      15.32877921      15.33125738      15.33170479      15.33034279      15.32709359      15.32252925      15.31997007      15.32063339      15.32398996      15.32608557      15.32595851      15.32401498      15.32080428      15.31611627      15.31129218      15.30792552      15.30627285
        14.96238542      14.96274772      14.96184196      14.95965501      14.95673060      14.95264198      14.94755015      14.94281728      14.94045306      14.94475814      14.95669371      14.97107291      14.98654996      15.00068227      15.01283595      15.02307000      15.03174914      15.03940931      15.04652446      15.05244422
        15.05681128      15.05918350      15.05924964      15.05779102      15.05571534      15.05362392      15.05196751      15.05062645      15.04966963      15.04922261      15.04900509      15.04874778      15.04838896      15.04778692      15.04694300      15.04615050      15.04529439      15.04408605      15.04278350      15.04168302
        15.04079553      15.04006002      15.03948963      15.03927977      15.03934023      15.03960028      15.04007746      15.04076677      15.04164927      15.04276817      15.04420534      15.04620642      15.04909050      15.05286387      15.05740598      15.06282078      15.06951355      15.07801984      15.08864099      15.10108461
        15.11537746      15.13251950      15.15434807      15.18056288      15.20892263      15.23730301      15.26502418      15.29260499      15.32019011      15.34551209      15.36774688      15.38316649      15.38946139      15.38501785      15.37534883      15.36762786      15.36242963      15.35965431      15.35990633      15.36225412
        15.36447575      15.36787116      15.37160791      15.37469771      15.37781439      15.37940875      15.38011262      15.37835695      15.37507817      15.37176829      15.37124493      15.37303836      15.37461372      15.37431062      15.37223941      15.36847426      15.36257471      15.35575325      15.34996851      15.34670207
        14.93708519      14.93684631      14.93568978      14.93297709      14.92908681      14.92339082      14.91525682      14.90443772      14.89342458      14.89189512      14.91353411      14.93751268      14.95926724      14.97925445      14.99656156      15.01127854      15.02353736      15.03403457      15.04351025      15.05199688
        15.05901708      15.06401451      15.06649996      15.06660772      15.06507498      15.06268444      15.06041926      15.05851288      15.05696765      15.05602379      15.05552914      15.05516364      15.05474809      15.05420394      15.05334246      15.05226120      15.05108120      15.04962494      15.04796106      15.04636227
        15.04507842      15.04397862      15.04299812      15.04237099      15.04208959      15.04211979      15.04247190      15.04303086      15.04380753      15.04486159      15.04625163      15.04825551      15.05116755      15.05492286      15.05933991      15.06442982      15.07056970      15.07854914      15.08903564      15.10161983
        15.11586689      15.13284940      15.15474861      15.18203071      15.21306243      15.24609461      15.27934507      15.31326355      15.34814003      15.38230534      15.41510488      15.43914081      15.45146642      15.45100242      15.44154480      15.43083226      15.42330488      15.41862759      15.41600853      15.41649682
        15.41773271      15.41870068      15.42056677      15.42282419      15.42535086      15.42783090      15.42988075      15.42937789      15.42791330      15.42432383      15.42196138      15.42173181      15.42240968      15.42206157      15.41969880      15.41526966      15.40932149      15.40205414      15.39482123      15.39124677
        14.91561805      14.91456645      14.91274309      14.90931860      14.90435602      14.89677592      14.88514124      14.86717685      14.84222366      14.81848741      14.86056082      14.90087096      14.93076981      14.95617594      14.97839104      14.99797365      15.01472899      15.02886252      15.04120308      15.05219341
        15.06155632      15.06898827      15.07381138      15.07568555      15.07493156      15.07231792      15.06935285      15.06650024      15.06415223      15.06250217      15.06155627      15.06097987      15.06045684      15.05987050      15.05895275      15.05759746      15.05598760      15.05417761      15.05222132      15.05024281
        15.04859489      15.04719410      15.04594098      15.04498067      15.04440706      15.04425705      15.04446271      15.04491024      15.04560973      15.04660831      15.04800443      15.05004460      15.05292135      15.05654531      15.06074579      15.06555513      15.07132132      15.07877232      15.08886116      15.10167111
        15.11623361      15.13338938      15.15543746      15.18348365      15.21712056      15.25501652      15.29491971      15.33582365      15.37797906      15.42163158      15.46499602      15.49996360      15.51958722      15.52495949      15.51699349      15.50390470      15.49255264      15.48542403      15.47964243      15.47650951
        15.47553228      15.47387192      15.47312748      15.47363278      15.47411366      15.47567465      15.47804249      15.47912562      15.47893007      15.47597789      15.47191002      15.46950658      15.46838489      15.46710311      15.46488299      15.46073411      15.45506181      15.44850899      15.44187671      15.43807478
        14.89731960      14.89576579      14.89307189      14.88918821      14.88364326      14.87527589      14.86193531      14.83889642      14.79619684      14.69374202      14.80839178      14.86830506      14.90500496      14.93305153      14.95874407      14.98290136      15.00456167      15.02320135      15.03937804      15.05321126
        15.06497948      15.07472764      15.08163438      15.08509888      15.08517281      15.08240329      15.07860538      15.07464733      15.07118049      15.06855582      15.06693050      15.06596178      15.06522104      15.06441632      15.06327586      15.06159620      15.05957028      15.05733105      15.05501313      15.05277975
        15.05085386      15.04927200      15.04792934      15.04684458      15.04612967      15.04584325      15.04593365      15.04631923      15.04699504      15.04798215      15.04940057      15.05142795      15.05420236      15.05765899      15.06162779      15.06625270      15.07182283      15.07886975      15.08848513      15.10118642
        15.11641887      15.13436862      15.15712826      15.18633542      15.22235136      15.26455191      15.31081429      15.35918700      15.41001461      15.46366483      15.51927959      15.56714285      15.59672106      15.60852146      15.60357167      15.58963342      15.57262780      15.56004335      15.54924521      15.54201921
        15.53749965      15.53345773      15.52979485      15.52775513      15.52615809      15.52522128      15.52624710      15.52863381      15.52856873      15.52577483      15.52074209      15.51630345      15.51286543      15.50981555      15.50772901      15.50479040      15.50021306      15.49481225      15.48986539      15.48646707
        14.88186851      14.87999975      14.87682109      14.87272895      14.86758119      14.86024490      14.84939741      14.83319216      14.81105879      14.78953379      14.82208964      14.85707353      14.88714334      14.91330382      14.93919867      14.96644846      14.99344266      15.01727454      15.03795675      15.05511032
        15.06945782      15.08143570      15.09012522      15.09486795      15.09564015      15.09271470      15.08800998      15.08289013      15.07819535      15.07435377      15.07170371      15.07004118      15.06886112      15.06766692      15.06613667      15.06406847      15.06157387      15.05889474      15.05618322      15.05368372
        15.05161039      15.04996502      15.04868251      15.04770413      15.04705282      15.04675816      15.04682592      15.04720970      15.04790342      15.04891867      15.05034535      15.05232770      15.05502053      15.05830919      15.06199486      15.06635152      15.07189844      15.07883867      15.08818256      15.10080318
        15.11642519      15.13553312      15.15973906      15.19045365      15.22876458      15.27505546      15.32738772      15.38396391      15.44501910      15.51029533      15.57827057      15.64039198      15.68344109      15.70245727      15.70130873      15.68609347      15.66135243      15.64092283      15.62337198      15.61119251
        15.60189868      15.59518544      15.58914030      15.58476554      15.58128825      15.57775466      15.57601240      15.57675158      15.57606045      15.57242220      15.56651465      15.56063916      15.55554932      15.55114147      15.54813871      15.54632928      15.54404133      15.54027401      15.53640657      15.53407213
        14.86913030      14.86718569      14.86407248      14.86030322      14.85599985      14.85035548      14.84305754      14.83396999      14.82478580      14.82147459      14.83470803      14.85425646      14.87577693      14.89810514      14.92235510      14.95033543      14.98179660      15.01165523      15.03680508      15.05721619
        15.07446920      15.08888904      15.09915683      15.10495791      15.10617904      15.10314055      15.09758153      15.09114134      15.08509611      15.07997082      15.07605845      15.07339970      15.07146690      15.06964787      15.06757535      15.06503749      15.06204053      15.05883593      15.05568342      15.05292149
        15.05079172      15.04921150      15.04805798      15.04732151      15.04690869      15.04679098      15.04697556      15.04744417      15.04820713      15.04928632      15.05074853      15.05271333      15.05530897      15.05845891      15.06193848      15.06599916      15.07140249      15.07844353      15.08789725      15.10056729
        15.11648135      15.13648582      15.16253228      15.19601403      15.23702313      15.28679745      15.34541442      15.41079639      15.48251737      15.55940026      15.64020417      15.71786445      15.77541423      15.80535562      15.80976237      15.79393258      15.76205964      15.73021679      15.70361512      15.68346504
        15.66857311      15.65855916      15.65068040      15.64415903      15.63856362      15.63286811      15.62791909      15.62415168      15.62138575      15.61672077      15.60908673      15.60158210      15.59580749      15.59117632      15.58737564      15.58600249      15.58533585      15.58362063      15.58109603      15.57970292
        14.85870014      14.85696793      14.85424021      14.85114438      14.84770253      14.84369895      14.83922979      14.83476712      14.83179954      14.83293563      14.84059345      14.85281648      14.86833023      14.88699042      14.90897517      14.93596779      14.96922714      15.00431473      15.03435926      15.05870709
        15.07936581      15.09618812      15.10793033      15.11462787      15.11618184      15.11317133      15.10704013      15.09921275      15.09156533      15.08516021      15.08000495      15.07612256      15.07319464      15.07053723      15.06774517      15.06459844      15.06099995      15.05718036      15.05356988      15.05065545