# File generated by Flopy version 3.7.0 on 07/08/2024 at 11:25:17.
BEGIN options
END options

BEGIN griddata
  strt
    INTERNAL  FACTOR  1.0
        15.00000000      15.00000000      15.00000000      15.00000000      15.00000000      15.00000000      15.00000000      15.00000000      15.00000000      15.00000000      15.00000000      15.00000000      15.00000000      15.00000000      15.00000000      15.00000000      15.00000000      15.00000000      15.00000000      15.00000000
        15.00000000      15.00000000      15.00000000      15.00000000      15.00000000      15.00000000      15.00000000      15.00000000      15.00000000      15.00000000      15.00000000      15.00000000      15.00000000      15.00000000      15.00000000      15.00000000      15.00000000      15.00000000      15.00000000      15.00000000
        15.00000000      15.00000000      15.00000000      15.00000000      15.00000000      15.00000000      15.00000000      15.00000000      15.00000000      15.00000000      15.00000000      15.00000000      15.00000000      15.00000000      15.00000000      15.00000000      15.00000000      15.00000000      15.00000000      15.00000000
        15.00000000      15.00000000      15.00000000      15.00000000      15.00000000      15.00000000      15.00000000      15.00000000      15.00000000      15.00000000      15.00000000      15.00000000      15.00000000      15.00000000      15.00000000      15.00000000      15.00000000      15.00000000      15.00000000      15.00000000
        15.00000000      15.00000000      15.00000000      15.00000000      15.00000000      15.00000000      15.00000000      15.00000000      15.00000000      15.00000000      15.00000000      15.00000000      15.00000000      15.00000000      15.00000000      15.00000000      15.00000000      15.00000000      15.00000000      15.00000000
        15.04560521      15.04640623      15.04711408      15.04617690      15.04329187      15.03907648      15.03420596      15.03013196      15.02636551      15.02233059      15.01868133      15.01598292      15.01368174      15.01188957      15.01086434      15.01042418      15.01038229      15.01045607      15.01079507      15.01110848
        15.01125138      15.01143583      15.01170139      15.01236881      15.01324317      15.01436950      15.01613428      15.01859471      15.02159535      15.02458864      15.02706485      15.02878923      15.03041505      15.03262265      15.03547069      15.03760478      15.03832082      15.03859722      15.03857852      15.03807814
        15.03745503      15.03557122      15.03273571      15.03010604      15.02793700      15.02661502      15.02626994      15.02699576      15.02865015      15.02995213      15.03070691      15.03028047      15.02912126      15.02742270      15.02557519      15.02375622      15.02320858      15.02366558      15.02339456      15.02217924
        15.02055530      15.01915475      15.01847075      15.01828906      15.01872329      15.01891488      15.01871132      15.01823870      15.01751972      15.01691314      15.01707622      15.01826267      15.02106183      15.02420352      15.02621620      15.02724465      15.02780513      15.02798887      15.02796775      15.02886525
        15.03070337      15.03377057      15.03834025      15.04396930      15.04910609      15.05351941      15.05808162      15.06210822      15.06705902      15.07284547      15.07992745      15.08891051      15.09668738      15.10072597      15.10300636      15.10165839      15.09897230      15.09656670      15.09646246      15.09874255
        15.08434219      15.08448634      15.08336111      15.07984473      15.07362138      15.06643099      15.05926480      15.05269453      15.04674750      15.04057036      15.03465075      15.03005473      15.02667839      15.02438058      15.02308097      15.02268583      15.02286135      15.02323054      15.02350378      15.02361155
        15.02357036      15.02375196      15.02431331      15.02539339      15.02711843      15.02926874      15.03243398      15.03704800      15.04208065      15.04664165      15.05027030      15.05331211      15.05682614      15.06142290      15.06645970      15.06999777      15.07324816      15.07663678      15.07880443      15.07994406
        15.07973119      15.07768398      15.07441389      15.07066528      15.06770293      15.06712524      15.06939080      15.07211693      15.07461412      15.07600429      15.07536177      15.07340822      15.06942249      15.06413465      15.06104265      15.05947528      15.05819487      15.05651420      15.05333493      15.04971198
        15.04705907      15.04573172      15.04539850      15.04603766      15.04683781      15.04747012      15.04714831      15.04672707      15.04686982      15.04750409      15.04921809      15.05172701      15.05484046      15.05702271      15.05807044      15.05849392      15.05818342      15.05736574      15.05693459      15.05919992
        15.06343073      15.06875810      15.07596023      15.08386441      15.09265645      15.10173539      15.11045329      15.11873716      15.12781823      15.13923468      15.15130605      15.16406816      15.17398456      15.17950385      15.18235425      15.18396179      15.18735443      15.19393464      15.20254256      15.20778359
        15.11156782      15.10953787      15.10549535      15.09982851      15.09263901      15.08506583      15.07791360      15.07072577      15.06372154      15.05672715      15.05039876      15.04515105      15.04130432      15.03884724      15.03745172      15.03683245      15.03668208      15.03652587      15.03609044      15.03552626
        15.03531381      15.03572482      15.03662960      15.03805344      15.04038095      15.04395312      15.04889929      15.05506358      15.06128936      15.06667090      15.07164154      15.07668661      15.08244677      15.08912345      15.09634357      15.10335869      15.11120777      15.11883034      15.12566743      15.13195299
        15.13468017      15.13398024      15.13202371      15.13093597      15.13213412      15.13520616      15.13755627      15.13950375      15.14075453      15.13886241      15.13379348      15.12737011      15.12018200      15.11367690      15.10788998      15.10423799      15.10051186      15.09557630      15.08989745      15.08546076
        15.08284564      15.08240796      15.08324001      15.08515499      15.08645615      15.08703152      15.08676895      15.08603700      15.08589924      15.08587217      15.08607652      15.08609189      15.08575012      15.08538313      15.08575700      15.08698052      15.08842752      15.09020331      15.09256819      15.09659898
        15.10211397      15.10843199      15.11697961      15.12831631      15.14082867      15.15217729      15.16346138      15.17546143      15.18825426      15.20219800      15.21503010      15.22470883      15.23386396      15.24280516      15.25307115      15.26518147      15.27890559      15.29345193      15.30422824      15.30954372
        15.12499425      15.12242730      15.11822169      15.11284592      15.10657303      15.10009590      15.09358847      15.08692705      15.08034938      15.07391176      15.06795339      15.06294230      15.05890558      15.05570481      15.05345782      15.05170512      15.05014892      15.04852545      15.04720912      15.04647123
        15.04659903      15.04759809      15.04918113      15.05186618      15.05577089      15.06094369      15.06720942      15.07384891      15.08067432      15.08779718      15.09507415      15.10264294      15.11057112      15.11984759      15.13048812      15.14326797      15.15734850      15.17159986      15.18609502      15.19828668
        15.20699720      15.21161358      15.21762557      15.22404863      15.22838255      15.23066903      15.22769821      15.22362246      15.21819967      15.21011612      15.19991221      15.18851172      15.17739607      15.16853558      15.16013427      15.15206167      15.14394937      15.13623442      15.13022101      15.12613615
        15.12447871      15.12471291      15.12618394      15.12785533      15.12809860      15.12712186      15.12580173      15.12338230      15.12022820      15.11677432      15.11375312      15.11133911      15.11023351      15.11143375      15.11547967      15.12138621      15.12798792      15.13472370      15.14111618      15.14667737
        15.15191974      15.15868630      15.16925786      15.18295081      15.19622344      15.20868974      15.22247128      15.23770694      15.25227669      15.26445088      15.27544549      15.28683755      15.29967573      15.31473101      15.33253074      15.35136633      15.37217843      15.39138930      15.40527213      15.41389874
        15.13449929      15.13223352      15.12902916      15.12504140      15.12000734      15.11458002      15.10914311      15.10358183      15.09842577      15.09349638      15.08873117      15.08433618      15.07984471      15.07518157      15.07097208      15.06724498      15.06408922      15.06166289      15.06001087      15.05979184
        15.06064596      15.06255109      15.06564022      15.07040625      15.07640672      15.08246438      15.08899587      15.09668583      15.10507999      15.11464669      15.12457254      15.13470099      15.14628163      15.16062035      15.17787917      15.19654207      15.21744838      15.24051662      15.26500249      15.28628957
        15.30707367      15.32390607      15.33738799      15.34341112      15.34260160      15.33608896      15.32609760      15.31351940      15.29784921      15.28158750      15.26476430      15.24825012      15.23259309      15.21845146      15.20653506      15.19500713      15.18444883      15.17628948      15.17107794      15.16828385
        15.16750992      15.16778978      15.16777551      15.16707711      15.16505735      15.16123398      15.15636313      15.15105869      15.14556373      15.14084339      15.13772004      15.13701215      15.13974777      15.14717008      15.15864270      15.17102783      15.18359092      15.19443040      15.20282242      15.20963871
        15.21642046      15.22573403      15.23811167      15.25143262      15.26459371      15.27944668      15.29485586      15.31138160      15.32565543      15.33748755      15.35118853      15.37029018      15.38906576      15.40784923      15.42816899      15.45179554      15.47858074      15.50086374      15.51782482      15.52767438
        15.14546080      15.14389566      15.14130748      15.13817806      15.13442755      15.13027672      15.12658778      15.12306751      15.11990123      15.11622872      15.11220502      15.10789499      15.10246966      15.09629388      15.09022811      15.08485446      15.08091740      15.07898307      15.07895140      15.08035939
        15.08284729      15.08689841      15.09251660      15.09836303      15.10485229      15.11106407      15.11860195      15.12913969      15.14014300      15.15256561      15.16593054      15.18225636      15.20157649      15.22510106      15.25276088      15.28387948      15.31573709      15.34891920      15.37916237      15.40678446
        15.43222346      15.45058548      15.45769924      15.45546043      15.44793645      15.43385853      15.41575326      15.39324969      15.36784502      15.34311448      15.31955046      15.29895055      15.28043376      15.26314598      15.24823618      15.23541224      15.22550913      15.21864887      15.21416752      15.21202294
        15.21064536      15.20844873      15.20494758      15.20014833      15.19511767      15.18889876      15.18171166      15.17502154      15.16915746      15.16593656      15.16656254      15.17175495      15.18368501      15.20186025      15.22104439      15.23796387      15.25253313      15.26440095      15.27507987      15.28773021
        15.30281934      15.31856641      15.33157265      15.34406033      15.35908937      15.37716320      15.39685029      15.41454534      15.43034182      15.44815331      15.46939633      15.49224957      15.51542452      15.53833791      15.56280085      15.58771776      15.60885989      15.62403281      15.63533404      15.64021242
        15.15992274      15.15850033      15.15634190      15.15413513      15.15242067      15.15066624      15.14910272      15.14699613      15.14424924      15.14053906      15.13631236      15.13135353      15.12524293      15.11776657      15.11085551      15.10559598      15.10329665      15.10466977      15.10862341      15.11362865
        15.11934874      15.12576826      15.13262897      15.14067722      15.14968620      15.15918458      15.17054537      15.18308801      15.19705497      15.21494472      15.23876337      15.26831827      15.30244012      15.33996846      15.37851872      15.41692157      15.45176281      15.48185895      15.50756873      15.53111200
        15.54772336      15.55703766      15.55618430      15.54843236      15.53483761      15.51349396      15.48642120      15.45670106      15.42545435      15.39548976      15.36710275      15.34379116      15.32410073      15.30635205      15.29169022      15.28037560      15.27153581      15.26402701      15.25801723      15.25245464
        15.24704911      15.24040826      15.23335923      15.22597471      15.21868995      15.21178869      15.20553727      15.20100152      15.19916792      15.20207545      15.21122964      15.22762576      15.25102257      15.27704604      15.29896068      15.31629092      15.33250781      15.35030104      15.37249827      15.40052263
        15.42801149      15.45212954      15.47668822      15.50083078      15.52285064      15.54383032      15.56140161      15.57052359      15.58157690      15.60042957      15.62256107      15.64395239      15.66648939      15.68920103      15.71013936      15.72520687      15.73322543      15.73800520      15.74115219      15.74268562
        15.17833816      15.17699454      15.17558023      15.17478981      15.17519437      15.17563916      15.17519640      15.17314219      15.17060905      15.16733508      15.16294882      15.15743644      15.15114299      15.14374099      15.13781692      15.13592906      15.13990777      15.14868371      15.15922097      15.16848318
        15.17772812      15.18782950      15.19974709      15.21556650      15.23184483      15.24712454      15.26266514      15.27977079      15.30193962      15.33181284      15.36860330      15.40936741      15.45147604      15.49062527      15.52582888      15.55667533      15.58373969      15.60547271      15.62561098      15.64031141
        15.64640165      15.64805210      15.64367279      15.63165047      15.61127457      15.58219480      15.54830736      15.51404143      15.47963354      15.44746726      15.41711349      15.39174944      15.37176233      15.35516594      15.34099890      15.32813587      15.31654920      15.30574438      15.29543330      15.28491782
        15.27479196      15.26534816      15.25668857      15.24913865      15.24240835      15.23743011      15.23549611      15.23766946      15.24612487      15.25986087      15.28123177      15.30959368      15.34080743      15.36922795      15.39344557      15.41888929      15.44950188      15.48576451      15.53037594      15.57891951
        15.62367499      15.66104557      15.69602375      15.72814866      15.74788384      15.75574252      15.75709307      15.75354303      15.75330707      15.76140829      15.77418758      15.78954148      15.80211130      15.81206108      15.81894817      15.82274381      15.82390838      15.82424962      15.82330301      15.82274693
        15.20399326      15.20303657      15.20175942      15.20185036      15.20320553      15.20424324      15.20421328      15.20369331      15.20285742      15.20141562      15.19874141      15.19508283      15.19119468      15.18828864      15.19083790      15.19970391      15.21352733      15.23134076      15.24915927      15.26642478
        15.28322795      15.30644573      15.33218831      15.35426834      15.37220566      15.38923721      15.40984037      15.43499959      15.46263711      15.49535944      15.53173462      15.56791305      15.60051370      15.63013785      15.65821910      15.68235210      15.70279759      15.71884904      15.73016244      15.73600997
        15.73638616      15.73208430      15.72161359      15.70312273      15.67600107      15.64322006      15.60814831      15.57252300      15.53720403      15.50477236      15.47547552      15.45000005      15.42908996      15.41010659      15.39300426      15.37561192      15.35785951      15.34238754      15.32735955      15.31344771
        15.30090566      15.29019307      15.28177410      15.27597275      15.27340164      15.27495492      15.28128508      15.29532638      15.31634061      15.34365071      15.38241447      15.42646434      15.46880425      15.51123391      15.55479244      15.60403839      15.66099952      15.72636908      15.78724837      15.84344600
        15.88870878      15.92119014      15.94361631      15.95564902      15.95630541      15.94555729      15.92970406      15.91589140      15.90602190      15.90265431      15.90385270      15.90561624      15.90489471      15.90157963      15.89656245      15.89296237      15.89140238      15.89129746      15.88962995      15.88805776
        15.24069089      15.23974551      15.23912948      15.23961693      15.24051408      15.24203517      15.24547897      15.24958861      15.25281677      15.25534957      15.25742125      15.26110590      15.26868580      15.28320240      15.30359731      15.32860288      15.35890216      15.39210384      15.42177439      15.45543201
        15.48768909      15.51456152      15.53067976      15.53950001      15.54853427      15.56123424      15.58093180      15.60574633      15.62922584      15.65288722      15.67884335      15.70450258      15.73101443      15.75848170      15.78580437      15.80579448      15.81821779      15.82497336      15.82694669      15.82691031
        15.82128531      15.80803263      15.78845051      15.76299582      15.73269815      15.69918114      15.66584633      15.63377909      15.60216887      15.57170586      15.54292315      15.51648002      15.49272682      15.46965748      15.44615644      15.42304735      15.40008275      15.37949799      15.36152655      15.34568611
        15.33256178      15.32216769      15.31590029      15.31503396      15.32004905      15.33246277      15.35384904      15.38603474      15.42587472      15.47817093      15.54573154      15.61682555      15.68746365      15.76118259      15.82917676      15.89515506      15.96562649      16.03528007      16.08412302      16.11973965
        16.14136971      16.14935857      16.14759088      16.13314916      16.11228906      16.09062641      16.06677342      16.04542908      16.02865213      16.01562527      16.00424455      15.99284464      15.98328013      15.97474935      15.96724906      15.96084723      15.95580382      15.95141767      15.94830121      15.94669224
        15.28657730      15.28771641      15.29064545      15.29463897      15.30064586      15.30721682      15.31500796      15.32337277      15.33458067      15.34816046      15.36567593      15.39092069      15.42541555      15.46961996      15.51914875      15.57066361      15.62122856      15.67062136      15.71166042      15.73201322
        15.73996234      15.73817308      15.72775205      15.71943324      15.71546299      15.71728954      15.73068307      15.75168868      15.77213184      15.79057219      15.81075926      15.83568324      15.86363036      15.89158014      15.91435171      15.92700669      15.93104787      15.92956204      15.92268011      15.91134202
        15.89513347      15.87345712      15.85000948      15.82368120      15.79554788      15.76600513      15.73661222      15.70940748      15.68106028      15.65059053      15.61743922      15.58560471      15.55698909      15.52988341      15.50233537      15.47383005      15.44733504      15.42409472      15.40482868      15.38944816
        15.37780275      15.37088120      15.37007595      15.37773806      15.39589208      15.42647300      15.46950348      15.52422205      15.59514519      15.68126214      15.78170838      15.87666181      15.96318190      16.05023885      16.12378353      16.18827274      16.24747254      16.29200623      16.31332395      16.31991783
        16.31676565      16.30398360      16.28300509      16.25611205      16.22560172      16.19632472      16.16934404      16.14434030      16.12229050      16.10222272      16.08354729      16.06935076      16.05767951      16.04672254      16.03659623      16.02557351      16.01506791      16.00533727      15.99863964      15.99495890
        15.35594132      15.36343969      15.37225674      15.38095232      15.39308084      15.40539485      15.42013999      15.44046644      15.46870727      15.50286615      15.55063508      15.60684815      15.67528304      15.75693957      15.83673621      15.90632819      15.95853928      15.98896476      15.99805187      15.97944943
        15.94944880      15.92304624      15.89846086      15.87845159      15.86311869      15.85807493      15.86918512      15.88810876      15.90845079      15.92957117      15.95332410      15.97994816      16.00298363      16.02143997      16.03222445      16.03352098      16.02765994      16.01650063      16.00069555      15.97985536
        15.95775798      15.93523748      15.91366656      15.89208952      15.86968517      15.84543660      15.82008531      15.79352739      15.76196249      15.72624090      15.68770127      15.65054665      15.61689022      15.58481121      15.55554092      15.52676924      15.50035451      15.47941479      15.46368852      15.45302884
        15.44694381      15.44742604      15.45609535      15.47691793      15.51236577      15.56365328      15.63069972      15.71591315      15.81873273      15.93092463      16.04044305      16.13906008      16.22744343      16.30649981      16.36725415      16.41344205      16.44554280      16.46018879      16.45893675      16.44701580
        16.42778524      16.40438131      16.37618272      16.34486408      16.31338252      16.28083916      16.24985952      16.22211547      16.19778977      16.17610359      16.15710477      16.14135361      16.12619154      16.10983813      16.09300406      16.07641237      16.06091356      16.04814830      16.03859482      16.03311480
        15.47510349      15.48054989      15.48883800      15.50118028      15.51994414      15.54112939      15.56992377      15.60809152      15.65960694      15.72459262      15.80369130      15.88902330      15.98405669      16.07891144      16.15281771      16.19945538      16.21824714      16.21016618      16.18520955      16.15470262
        16.12093743      16.09010905      16.06023326      16.03427532      16.01501320      16.01061629      16.02065311      16.03739862      16.05895079      16.08362429      16.10361084      16.11810179      16.12577561      16.12670958      16.12103742      16.11028078      16.09580714      16.07819422      16.05810746      16.03716591
        16.01613573      15.99517753      15.97564311      15.95681159      15.93699465      15.91439132      15.88859945      15.85931675      15.82551852      15.78680181      15.74499185      15.70490806      15.66922272      15.63742590      15.60991491      15.58628493      15.56711004      15.55452276      15.54880483      15.54793805
        15.55330250      15.56721055      15.59288058      15.63292944      15.68482752      15.75798654      15.85380460      15.97158092      16.09388063      16.20617421      16.30483742      16.39547918      16.46536990      16.51430163      16.54675291      16.56505806      16.57042388      16.56357452      16.54914801      16.52951544
        16.50515689      16.47897863      16.44984737      16.41791257      16.38569790      16.35245223      16.31963212      16.29004713      16.26420411      16.23994093      16.21706434      16.19523637      16.17476381      16.15383702      16.13258081      16.11299140      16.09611427      16.08317442      16.07427592      16.06944981
        15.63816923      15.63905263      15.64715879      15.67163534      15.70478693      15.74160099      15.78972091      15.84602762      15.91492978      15.99875031      16.09158660      16.18594001      16.27211682      16.33464763      16.36673825      16.37467795      16.36564753      16.34581969      16.32139277      16.29843306
        16.27402147      16.24968058      16.22622520      16.20690473      16.19330773      16.18897112      16.19161321      16.19946415      16.21094948      16.22205744      16.22480202      16.22008504      16.21104301      16.19810037      16.18110937      16.16273695      16.14391372      16.12426413      16.10323210      16.08277332
        16.06378444      16.04385629      16.02366112      16.00415980      15.98365200      15.96067748      15.93493082      15.90588982      15.87330248      15.83646615      15.79596887      15.75727757      15.72400528      15.69719162      15.67727253      15.66303538      15.65391098      15.65074049      15.65734947      15.67258597
        15.69807186      15.73488833      15.78410509      15.84561837      15.92101182      16.02126303      16.14099547      16.26583805      16.37760139      16.46961028      16.54402988      16.59663866      16.62453156      16.64042850      16.64692837      16.64627544      16.63832643      16.62360817      16.60408227      16.58335020
        16.55953589      16.53360818      16.50434515      16.47249327      16.43976329      16.40518101      16.37153710      16.33974697      16.31064377      16.28314337      16.25578353      16.22949893      16.20585546      16.18413813      16.16360945      16.14477456      16.12908087      16.11830455      16.11180732      16.10854433
        15.85847026      15.86768909      15.88802534      15.92222011      15.96653318      16.01551252      16.07000120      16.12966739      16.20097243      16.27832201      16.35516968      16.42022737      16.46622302      16.49005051      16.49544307      16.48910472      16.47875786      16.46517502      16.44832094      16.43240778
        16.41539957      16.40048445      16.38530943      16.36985155      16.35568990      16.34366675      16.33428976      16.32644656      16.31997297      16.31203602      16.30062611      16.28521954      16.26724435      16.24711540      16.22625908      16.20565039      16.18517730      16.16456701      16.14319568      16.12179927
        16.10105631      16.08104358      16.06136071      16.04161799      16.02121803      15.99863474      15.97415655      15.94747902      15.91881555      15.88762528      15.85223366      15.81810074      15.79054428      15.77149948      15.76068559      15.75797606      15.76283117      15.77578916      15.79778269      15.82890394
        15.87171073      15.92906546      15.99878839      16.08148186      16.18062666      16.29263044      16.40654799      16.50765623      16.58620344      16.64165361      16.67620931      16.69190376      16.69643937      16.69668889      16.69232990      16.68479207      16.67320766      16.65826385      16.63960501      16.61885810
        16.59540493      16.56950208      16.53991850      16.50745595      16.47447142      16.43884990      16.40286952      16.36928431      16.33792835      16.30839343      16.28038131      16.25432610      16.23078504      16.20975323      16.19132894      16.17637761      16.16450127      16.15604805      16.15050792      16.14708016
        16.14170478      16.15623135      16.18451151      16.21857043      16.25621901      16.29348710      16.33522792      16.38360891      16.44186113      16.49864346      16.54181193      16.56999777      16.58688861      16.59378011      16.59284670      16.58527767      16.57475914      16.56221289      16.54697117      16.53294190
        16.51930388      16.50616564      16.49047282      16.47309392      16.45384753      16.43337736      16.41513523      16.39651979      16.37940879      16.36272721      16.34505416      16.32655709      16.30706502      16.28533331      16.26289568      16.24157989      16.22138160      16.20164985      16.18107952      16.16033898
        16.14016676      16.12015974      16.10114695      16.08213345      16.06261826      16.04216744      16.02081045      15.99787357      15.97318453      15.94791472      15.92050958      15.89393723      15.87384020      15.86486712      15.86828712      15.87990314      15.89843801      15.92442348      15.95775572      15.99821667
        16.05084276      16.11909543      16.20191028      16.29661949      16.39858948      16.49800019      16.58296790      16.64654294      16.68622603      16.70812487      16.71958442      16.72359501      16.72320194      16.71990925      16.71393245      16.70608503      16.69480779      16.67993286      16.66174364      16.64130847
        16.61785428      16.59167908      16.56248588      16.53090948      16.49780031      16.46207252      16.42572885      16.39109851      16.35976071      16.33079700      16.30355271      16.27910764      16.25796098      16.23979237      16.22398695      16.21092573      16.20019206      16.19118519      16.18462766      16.18055524
        16.44154133      16.45196352      16.46538739      16.48192629      16.50107957      16.52317878      16.55177726      16.58561997      16.61828189      16.64541813      16.66101342      16.66806588      16.66942553      16.66514728      16.65595781      16.64391236      16.62934362      16.61342974      16.59685490      16.58178929
        16.56764734      16.55298164      16.53652656      16.51894355      16.49949701      16.47802130      16.45597487      16.43317116      16.41202050      16.39264347      16.37335078      16.35369533      16.33429714      16.31412818      16.29305986      16.27290936      16.25414991      16.23589393      16.21698980      16.19783102