# File generated by Flopy version 3.6.0 on 02/25/2025 at 10:29:32.
BEGIN options
END options

BEGIN dimensions
  MAXBOUND  5
END dimensions

BEGIN period  1
  1 1410 0.00000000E+00
  1 1450 0.00000000E+00
  1 3410 0.00000000E+00
  1 3470 -2.50000000E-05
  1 4460 -2.50000000E-04
END period  1

