# File generated by Flopy version 3.7.0 on 06/11/2024 at 14:54:13.
BEGIN options
END options

BEGIN griddata
  strt
    INTERNAL  FACTOR  1.0
        15.00000000      15.00000000      15.00000000      15.00000000      15.00000000      15.00000000      15.00000000      15.00000000      15.00000000      15.00000000      15.00000000      15.00000000      15.00000000      15.00000000      15.00000000      15.00000000      15.00000000      15.00000000      15.00000000      15.00000000
        15.00000000      15.00000000      15.00000000      15.00000000      15.00000000      15.00000000      15.00000000      15.00000000      15.00000000      15.00000000      15.00000000      15.00000000      15.00000000      15.00000000      15.00000000      15.00000000      15.00000000      15.00000000      15.00000000      15.00000000
        15.00000000      15.00000000      15.00000000      15.00000000      15.00000000      15.00000000      15.00000000      15.00000000      15.00000000      15.00000000      15.00000000      15.00000000      15.00000000      15.00000000      15.00000000      15.00000000      15.00000000      15.00000000      15.00000000      15.00000000
        15.00000000      15.00000000      15.00000000      15.00000000      15.00000000      15.00000000      15.00000000      15.00000000      15.00000000      15.00000000      15.00000000      15.00000000      15.00000000      15.00000000      15.00000000      15.00000000      15.00000000      15.00000000      15.00000000      15.00000000
        15.00000000      15.00000000      15.00000000      15.00000000      15.00000000      15.00000000      15.00000000      15.00000000      15.00000000      15.00000000      15.00000000      15.00000000      15.00000000      15.00000000      15.00000000      15.00000000      15.00000000      15.00000000      15.00000000      15.00000000
        15.03259674      15.03435501      15.03607139      15.03955815      15.04632982      15.05725763      15.06672122      15.07385142      15.08555343      15.10341678      15.12627376      15.14784060      15.15337142      15.13679067      15.10837921      15.08503534      15.06827773      15.05459299      15.04594903      15.04380310
        15.04307303      15.03981074      15.03381085      15.02693189      15.02217145      15.01947838      15.01769466      15.01847128      15.02569980      15.04623882      15.07922528      15.11586367      15.14193828      15.16030572      15.17176129      15.16951305      15.14760307      15.12263013      15.09191820      15.06912476
        15.05960956      15.05687017      15.06025420      15.08141460      15.10253969      15.10929028      15.11352625      15.12796130      15.14275865      15.14605457      15.14494470      15.14102119      15.13158774      15.11584764      15.10066614      15.10147675      15.10637403      15.11242323      15.12385955      15.14280040
        15.15968156      15.15030826      15.12553958      15.10854351      15.10630348      15.10418595      15.11001424      15.11077905      15.10638892      15.09411075      15.07213935      15.04931640      15.03286967      15.02048760      15.01377124      15.01179088      15.01240489      15.01514504      15.01855970      15.02232696
        15.02615908      15.03265557      15.04069376      15.04543552      15.04660060      15.04212856      15.03591155      15.03117503      15.02949985      15.03258685      15.04466664      15.06393687      15.08231114      15.10295071      15.12568465      15.16445737      15.21059404      15.24649302      15.25633365      15.25436014
        15.07049761      15.07364412      15.07836277      15.08987062      15.10672969      15.12644193      15.14190804      15.15389023      15.17032435      15.20024028      15.22973184      15.24206606      15.23060865      15.19888998      15.16446944      15.13472173      15.11591010      15.10500625      15.09907399      15.09413209
        15.08732415      15.07899171      15.06775271      15.05613462      15.04533316      15.03882502      15.03778480      15.04697276      15.07690064      15.12709642      15.18034926      15.22413084      15.25555405      15.27747369      15.28992480      15.28713435      15.25960919      15.22642949      15.19797477      15.17564463
        15.16400768      15.17501940      15.20860710      15.23625615      15.25647404      15.26436919      15.27871030      15.29461517      15.30610202      15.29850970      15.28693902      15.26763113      15.24883195      15.22663464      15.21204140      15.21355619      15.22346690      15.23735821      15.25611562      15.27666070
        15.29091515      15.28681845      15.27856427      15.28055286      15.27806067      15.26494557      15.25207166      15.22671823      15.18871316      15.14851317      15.11425435      15.08345349      15.05953303      15.04357143      15.03624158      15.03452185      15.03727681      15.04097732      15.04625026      15.05422699
        15.06560559      15.07692125      15.08579383      15.08938067      15.08855635      15.08412132      15.07953927      15.08106056      15.09026481      15.11222234      15.13635820      15.16003912      15.18147278      15.21470395      15.26090216      15.30972517      15.33891320      15.35465603      15.37906477      15.40261160
        15.09654192      15.10227456      15.11412181      15.13229512      15.15358048      15.17245829      15.19401422      15.22124318      15.25258382      15.28367387      15.30352772      15.30488438      15.29239342      15.26858560      15.23910136      15.20845590      15.18701128      15.17332152      15.15940452      15.14294769
        15.12802209      15.11461312      15.09950578      15.08505029      15.07521991      15.07272282      15.08306781      15.10733716      15.15414359      15.20922447      15.25579768      15.29628494      15.33729012      15.36968464      15.38795246      15.39931646      15.39396646      15.38060867      15.38542544      15.39008344
        15.38926906      15.40531597      15.43229893      15.43578585      15.43582566      15.43038653      15.42353618      15.40846309      15.38960476      15.37134163      15.35272581      15.33244126      15.31199663      15.29546587      15.28772385      15.28697111      15.29671435      15.31916143      15.34651779      15.37337928
        15.39233084      15.40826581      15.42130700      15.42398014      15.40488881      15.37300764      15.33292982      15.28873177      15.23926829      15.19255403      15.15284032      15.12226797      15.09755851      15.07996249      15.07015754      15.06875093      15.07401251      15.08001098      15.08780404      15.09668856
        15.10662731      15.11219526      15.11461301      15.11533203      15.11559214      15.11944393      15.13363806      15.16431838      15.20794211      15.25094959      15.27669466      15.30789445      15.35276347      15.39652000      15.44226999      15.47387379      15.49432262      15.51402030      15.54035396      15.56244313
        15.12322608      15.12849696      15.14279449      15.16565948      15.19321749      15.22784049      15.26650819      15.30288590      15.33736261      15.36242794      15.37341238      15.37290519      15.35968489      15.34164557      15.31732415      15.28401225      15.25191126      15.22740808      15.20512338      15.18358795
        15.16339078      15.14856970      15.13604814      15.12733149      15.12441402      15.13211974      15.15004528      15.17869884      15.22146894      15.26783741      15.32292145      15.38800952      15.44187944      15.48245903      15.51629748      15.54301996      15.56177316      15.57153366      15.59069160      15.60486099
        15.60335620      15.59459861      15.58440877      15.56804792      15.54729761      15.52305906      15.49382039      15.46024315      15.42771699      15.40170366      15.38213060      15.36586901      15.35215845      15.34409293      15.34305530      15.35330044      15.37644047      15.40545317      15.43860488      15.46696406
        15.48756223      15.50178502      15.49942022      15.48418399      15.45950162      15.42196999      15.37584500      15.32983689      15.28666048      15.24613206      15.20911971      15.18052515      15.15775265      15.13865040      15.12664994      15.12228183      15.12376801      15.12641712      15.12833519      15.12889622
        15.12793588      15.12699863      15.12681444      15.12969617      15.13926352      15.16610412      15.21629539      15.29240856      15.37549638      15.44644270      15.49719993      15.54137229      15.58935306      15.61390347      15.62792463      15.63529881      15.64299710      15.64631266      15.64130989      15.63700006
        15.15986512      15.17425983      15.20406372      15.24271461      15.27685343      15.31609975      15.35328641      15.38146467      15.40363588      15.41532127      15.41700160      15.41288413      15.40189006      15.38329326      15.35742886      15.32463642      15.29013969      15.26082606      15.23752193      15.21852045
        15.20396544      15.19628121      15.19384408      15.20028366      15.21155152      15.22700794      15.24464224      15.28186072      15.34371008      15.42106911      15.49206096      15.54564549      15.57815199      15.60843683      15.64247679      15.66535100      15.68322380      15.69247220      15.69229598      15.68881375
        15.68034121      15.66284036      15.64518649      15.62601398      15.60217448      15.57538421      15.54732820      15.51502259      15.48049753      15.45617213      15.44156928      15.43527456      15.44049911      15.44864416      15.46194935      15.48140536      15.49987809      15.51558484      15.53285647      15.54269543
        15.54485566      15.53928476      15.52812262      15.50896504      15.48279846      15.45038987      15.41320367      15.37189547      15.33550999      15.30724285      15.28177373      15.25792174      15.23593772      15.21286036      15.19610110      15.18054750      15.16664019      15.15676695      15.14899458      15.14372460
        15.14000622      15.13855186      15.14144316      15.15188721      15.18178688      15.24411092      15.35005720      15.46233862      15.56110163      15.63635706      15.68633702      15.71191245      15.72677740      15.72655899      15.71707438      15.70399516      15.69059774      15.67803478      15.66677074      15.65834771
        15.25418975      15.27688300      15.31845222      15.35570461      15.37738679      15.39490740      15.41122459      15.42444633      15.43184551      15.43366233      15.43155869      15.42649351      15.41753271      15.40135232      15.37712945      15.34643118      15.31506175      15.28741260      15.26464638      15.24859085
        15.24243972      15.24555699      15.25655060      15.27775279      15.30943011      15.34258878      15.38860515      15.45923949      15.54352570      15.61466242      15.65618112      15.67652839      15.68750782      15.69938549      15.71113090      15.71845226      15.72123580      15.72056336      15.71725955      15.71096581
        15.70168398      15.68803880      15.67154120      15.65399104      15.63511068      15.61081548      15.58505188      15.56700101      15.55173075      15.54479245      15.54977625      15.55879107      15.57281715      15.58426278      15.59128664      15.59770846      15.59981500      15.59614544      15.58871746      15.58090654
        15.57186851      15.56185998      15.54908632      15.53167670      15.50695578      15.47819386      15.44585332      15.41147935      15.38037954      15.35816964      15.34074779      15.32317290      15.30490937      15.27886582      15.24890272      15.22063726      15.19515030      15.17657396      15.16578206      15.16193070
        15.16473276      15.17280619      15.18585835      15.21565929      15.28182139      15.39405395      15.52311308      15.62385092      15.69622762      15.73772708      15.76027135      15.76728640      15.76412124      15.75381546      15.73857422      15.72117450      15.70533476      15.69263803      15.68379055      15.68002429
        15.40737583      15.42158920      15.43846906      15.44129617      15.43958316      15.43752944      15.43690040      15.44088343      15.44418697      15.44533412      15.44397779      15.43893846      15.42983769      15.41537436      15.39435569      15.36475563      15.33115623      15.30226468      15.28000493      15.26715483
        15.26667376      15.27914888      15.30669668      15.34728095      15.39448141      15.44479119      15.51717298      15.60349506      15.67147490      15.70717800      15.72161321      15.72743047      15.72985375      15.73077495      15.73090690      15.73018843      15.72900651      15.72748549      15.72524578      15.72136669
        15.71473299      15.70408800      15.68962399      15.67298987      15.65722218      15.64399208      15.63119324      15.62440195      15.62658485      15.63215208      15.64167550      15.65163880      15.65683538      15.66044563      15.66059408      15.65578087      15.64719260      15.63406562      15.61886373      15.60536185
        15.59367869      15.58501325      15.57708924      15.56248760      15.53862186      15.50620275      15.47403867      15.44306066      15.41470800      15.39241807      15.37506663      15.35917508      15.34343316      15.32166725      15.28930736      15.25696208      15.23225141      15.21943680      15.22182666      15.22673516
        15.23062915      15.24738957      15.28336530      15.34399548      15.44272740      15.56134204      15.65545112      15.71717439      15.75236638      15.77022873      15.78051734      15.78417291      15.78056512      15.77151514      15.75840445      15.74372302      15.73136999      15.72256400      15.71528392      15.71334288
        15.56956628      15.55690147      15.53186791      15.50933804      15.49428957      15.48347049      15.47590591      15.47050318      15.46658385      15.46327422      15.45990717      15.45441378      15.44562881      15.43146762      15.41002003      15.38065864      15.34530541      15.30978451      15.28188382      15.26569417
        15.27695177      15.31184687      15.36119017      15.41302544      15.46506464      15.52820407      15.60918221      15.68027489      15.71864522      15.73318289      15.73708174      15.73794894      15.73770520      15.73674594      15.73546214      15.73427634      15.73329617      15.73263424      15.73178773      15.73017465
        15.72597219      15.71828412      15.70711798      15.69511019      15.68425832      15.67860079      15.67893097      15.68093080      15.68563952      15.69384145      15.70281967      15.70889333      15.70828140      15.70613133      15.70293194      15.69287370      15.67862287      15.66392879      15.65120520      15.64032951
        15.63122907      15.62690198      15.62470875      15.61318619      15.58904367      15.55089840      15.50915630      15.47183135      15.43835107      15.41484165      15.39789913      15.38117962      15.36593675      15.35013771      15.32969321      15.30670711      15.29216821      15.29430763      15.30659521      15.31328897
        15.32056970      15.34411022      15.39673620      15.47894685      15.57877582      15.66348392      15.71553284      15.74738777      15.77180438      15.78883498      15.79924969      15.80191688      15.79832935      15.79176501      15.78358653      15.77520843      15.76675301      15.75969004      15.75329736      15.75102868
        15.67459355      15.65257981      15.61439042      15.58050273      15.55844276      15.54322719      15.52789505      15.51082679      15.49589808      15.48782083      15.48345273      15.47825057      15.47017437      15.45675323      15.43536327      15.40431353      15.36216213      15.31002848      15.25168345      15.22066900
        15.26006840      15.33500913      15.40670519      15.47097141      15.54114733      15.61642937      15.68183709      15.71872903      15.73316498      15.73796342      15.74009151      15.74089360      15.74089748      15.74023387      15.73912063      15.73808587      15.73760848      15.73779550      15.73830060      15.73881894
        15.73794450      15.73436420      15.73029923      15.72922832      15.72713850      15.72522438      15.72694656      15.73267486      15.74470911      15.75661210      15.76084415      15.75805082      15.75251875      15.74362994      15.73184029      15.72034049      15.70977057      15.70372210      15.70342466      15.70596745
        15.70947187      15.72246787      15.71979430      15.69975920      15.66208264      15.61514524      15.56214011      15.51730869      15.48754662      15.46740649      15.44662401      15.43032235      15.41984845      15.41526170      15.40387731      15.39209476      15.39431976      15.39582766      15.39600584      15.39653125
        15.41771897      15.46102197      15.52159402      15.59546455      15.66512516      15.71608837      15.75286697      15.78236102      15.80391909      15.81743368      15.82366813      15.82413578      15.82103953      15.81589486      15.80958781      15.80291343      15.79616007      15.79169496      15.79415143      15.79844046
        15.74111726      15.71720593      15.68441842      15.64765386      15.61385970      15.58768699      15.56916570      15.55235190      15.53941318      15.53453974      15.52782361      15.51748526      15.50501109      15.48886640      15.46579871      15.43199009      15.38261639      15.30558885      15.17793728      15.12224144
        15.12129766      15.00739767      15.00635630      15.18735825      15.34091533      15.44782026      15.53564924      15.61533839      15.67611804      15.71193293      15.72849677      15.73555564      15.73893850      15.74099578      15.74219182      15.74279611      15.74288177      15.74254835      15.74258354      15.74374129
        15.74576957      15.74814964      15.75089393      15.75455996      15.75965185      15.76613348      15.77255002      15.77693290      15.77971154      15.78708922      15.80048589      15.81153713      15.81287939      15.80453581      15.79384723      15.78417792      15.77353359      15.76295682      15.75711001      15.75888970
        15.76873295      15.79141471      15.78453457      15.79384128      15.84033132      15.85804643      15.85083597      15.87197347      15.86051354      15.82357753      15.76897958      15.71880012      15.67246345      15.63370546      15.60873071      15.59791178      15.60159570      15.60152257      15.60470277      15.60306309
        15.59374918      15.58305338      15.56965373      15.53707996      15.51232100      15.51520544      15.54676656      15.59288546      15.63759127      15.68525043      15.73280105      15.76917487      15.79754014      15.81956670      15.83461450      15.84307353      15.84524325      15.84367249      15.83947466      15.83417229
        15.82966235      15.82464143      15.82239453      15.82668623      15.83773220      15.84481317      15.79455489      15.77256738      15.73881253      15.70434155      15.67105209      15.64257865      15.61915998      15.60125102      15.58815833      15.57604133      15.56318990      15.54883620      15.53270878      15.51352315
        15.49028817      15.45842114      15.41111927      15.33048171      15.19650216      15.07227968      15.23175477      15.13423641      14.90299064      14.77511013      14.83356858      14.63494154      14.50949566      14.53443869      14.31375661      14.16905501      14.18082279      13.63958940      14.79146963      14.90958592
        14.56434122      14.69069019      14.32683723      14.46733342      14.18576595      14.42942849      14.63789507      14.85849933      14.89773059      14.61729552      14.35335698      14.19899008      14.50427767      14.45580519      14.76441435      14.69031767      15.04130084      14.96279402      14.34718729      14.49618697
        14.50778483      14.58229478      14.69063057      14.71485372      14.79751549      14.91205832      14.96716571      15.03785198      15.06790013      15.19744865      15.11799153      15.22280479      15.35328441      15.48755995      15.58665253      15.65704289      15.69923473      15.72028084      15.73036876      15.73582240
        15.73935289      15.74179706      15.74358278      15.74468563      15.74581682      15.74793252      15.75197741      15.75629591      15.75970654      15.76433697      15.77105189      15.77933047      15.78997512      15.80246397      15.81334674      15.82384720      15.83594400      15.84799409      15.85485567      15.85261511
        15.84447587      15.83497039      15.82535008      15.81750534      15.81250508      15.81461788      15.82795083      15.85356328      15.88813539      15.88264796      15.89177427      15.95198072      15.96669606      15.89510301      15.90154610      15.92450159      15.92576108      15.92871072      15.93951775      15.94009875
        15.94141951      15.94668814      15.94891942      15.91164313      15.92300894      15.93342888      15.93752948      15.94364379      15.94551144      15.95074114      15.95194997      15.95063327      15.94949584      15.96198646      15.95783882      15.95575670      15.95675932      15.96236507      15.96390953      15.97148650
        15.97438312      15.99190733      15.99669617      15.95838189      15.96040564      15.96555231      15.96658336      15.96675419      15.97712150      15.97900017      15.97866926      16.00010156      16.00137225      15.95366503      15.96404827      15.99460369      15.99489796      15.97905633      15.96246765      15.93256526
        15.89137770      15.85360738      15.83008686      15.81607383      15.80540067      15.80911709      15.82503337      15.83015247      15.82917852      15.81615755      15.79704453      15.77389396      15.73897423      15.69375493      15.66491489      15.67895455      15.69895841      15.71527527      15.73526677      15.76402419
        15.79037890      15.81298465      15.83342418      15.85158563      15.86152725      15.86452518      15.86375738      15.86079077      15.85645862      15.85051070      15.84637401      15.84595765      15.85111060      15.86188551      15.87034056      15.87275012      15.82997418      15.81786567      15.79270747      15.76288326
        15.73296556      15.70463529      15.67838902      15.65312882      15.63075432      15.60708451      15.58809984      15.57027853      15.55284038      15.53405135      15.51029117      15.48106702      15.44498430      15.38921707      15.29299297      15.17337881      15.16311596      15.25156489      15.24379248      15.27044374
        15.41450968      15.54064896      15.62408880      15.67733376      15.70706121      15.72270722      15.73097855      15.73622672      15.74045386      15.74412560      15.74816454      15.75364289      15.76040732      15.76862965      15.77565764      15.78211783      15.78960286      15.79616670      15.80177178      15.81021413
        15.82515357      15.84548834      15.86392333      15.87740879      15.88797631      15.89157122      15.88685343      15.87875538      15.87121776      15.86772719      15.86887391      15.87350748      15.88334855      15.90013421      15.92832883      15.96380166      15.99586197      16.01467461      16.01708535      16.01950681
        16.02507014      16.02642433      16.02356018      16.01841385      16.00856222      15.99707969      15.98494873      15.97080934      15.96361063      15.96396533      15.96188858      15.96340489      15.95908197      15.94892544      15.92999995      15.90890902      15.88386511      15.85656147      15.82801716      15.80880147
        15.80545089      15.81664319      15.82035704      15.82051356      15.82873991      15.84265208      15.85792794      15.87238985      15.88425021      15.89151682      15.89178318      15.88899388      15.88474388      15.88091335      15.87931907      15.87789526      15.87810084      15.88171640      15.88605740      15.89017790
        15.88945661      15.88732122      15.85631893      15.84823406      15.83442562      15.81420281      15.78997943      15.76083839      15.72982839      15.69810500      15.66940468      15.64464455      15.62399373      15.60510757      15.58308186      15.55749088      15.53153016      15.50514286      15.47459108      15.44055223
        15.39776895      15.37311913      15.41981359      15.51833848      15.59939443      15.65161613      15.68657001      15.70904690      15.72291673      15.73257807      15.73972719      15.74622985      15.75338330      15.76170994      15.77288756      15.78449525      15.79644426      15.80797741      15.81925313      15.82895913
        15.83646176      15.84578426      15.86287524      15.88420116      15.90161272      15.91544745      15.92385282      15.92670953      15.92262564      15.91587497      15.91135187      15.91411340      15.92694824      15.94503967      15.95797643      15.97163624      15.98636102      16.00425548      16.02072144      16.02982049
        16.03371329      16.03531299      16.03670093      16.03849181      16.03925890      16.03946774      16.03969753      16.03851536      16.03569958      16.03318827      16.02477018      16.01279857      15.99859077      15.98346668      15.96437306      15.94273973      15.92130095      15.90093197      15.88576191      15.88189976
        15.88477396      15.88691364      15.89116312      15.89641630      15.90680111      15.91759400      15.92801392      15.93207085      15.92997573      15.92482284      15.92191697      15.91777701      15.91326248      15.91015862      15.90886051      15.90942937      15.91028757      15.91092665      15.90864654      15.90471350
        15.90011044      15.89693038      15.89477555      15.88749296      15.87345203      15.85340575      15.82905587      15.79866292      15.76360753      15.72925622      15.69980641      15.67751870      15.65866650      15.63834481      15.61497609      15.58868412      15.56055274      15.53887992      15.51808711      15.49694054
        15.48126933      15.49061674      15.53333389      15.58610587      15.62817575      15.66219951      15.69043141      15.71161898      15.72783658      15.74034113      15.75100303      15.76060797      15.77166589      15.78466007      15.79837235      15.81259785      15.82744963      15.84462198      15.85835453      15.86809196
        15.87853170      15.89361207      15.91315670      15.92892110      15.94026215      15.95091744      15.95630331      15.95678340      15.95530206      15.95671971      15.96415114      15.97857648      15.99628247      16.01096186      16.01781595      16.02338858      16.02818029      16.03316882      16.03783765      16.04133220
        16.04387646      16.04677797      16.04989650      16.05395588      16.05751033      16.06215503      16.06596305      16.06647821      16.06315774      16.05574348      16.04440732      16.03132772      16.01677455      16.00087037      15.98561806      15.97045512      15.95602675      15.94147406      15.93218301      15.92833459
        15.93216821      15.93792460      15.94406786      15.95116488      15.95768538      15.96362455      15.96670315      15.96644812      15.96340120      15.95787576      15.95199104      15.94571066      15.94062776      15.93745070      15.93331611      15.92935640      15.92489077      15.92046601      15.91586150      15.91121462
        15.90705981      15.90460339      15.92392614      15.91391566      15.89596324      15.87329706      15.84754691      15.82072060      15.79235864      15.76039891      15.73112680      15.70637069      15.68734924      15.66699666      15.64344543      15.62090430      15.59963358      15.58092020      15.56722856      15.55824232
        15.55535910      15.56648395      15.59350351      15.62282200      15.64845609      15.67237023      15.69992748      15.72675804      15.74901135      15.76471205      15.77833509      15.78990722      15.80392061      15.81838800      15.83467704      15.85153725      15.86658231      15.88039743      15.89104052      15.90061606
        15.91310312      15.92764346      15.94327617      15.95679693      15.96828420      15.97679890      15.98263054      15.98793601      15.99564982      16.00570238      16.01656442      16.02550905      16.03134011      16.03459017      16.03656444      16.03765447      16.04017669      16.04368020      16.04675302      16.04982586
        16.05334702      16.05745319      16.06119199      16.06513523      16.07008888      16.07445539      16.07618318      16.07525882      16.07118512      16.06381718      16.05361500      16.04222795      16.03000516      16.01630818      16.00223578      15.99038803      15.98189139      15.97448194      15.97066043      15.97155445
        15.97533002      15.97900551      15.98142929      15.98382695      15.98625202      15.98861063      15.99009021      15.99191644      15.99001476      15.98426597      15.97545788      15.96690678      15.95881446      15.95218718      15.94570785      15.93934793      15.93263443      15.92638593      15.92151860      15.91742918
        15.91376010      15.91145303      15.92967064      15.92082146      15.90411775      15.88266898      15.85834258      15.83155421      15.80379910      15.77626637      15.75273630      15.73255796      15.71348883      15.69429252      15.67510871      15.65735598      15.64253684      15.62807716      15.61701919      15.61234308
        15.61540174      15.62527735      15.63879284      15.65347690      15.67495341      15.70473470      15.73577089      15.76126606      15.78079122      15.79568986      15.80922325      15.82153169      15.83518741      15.84929159      15.86507815      15.87869556      15.88990268      15.89934674      15.90845537      15.91923494