# File generated by Flopy version 3.6.0 on 04/08/2024 at 13:08:56.
BEGIN options
  SAVE_FLOWS
END options

BEGIN packages
  disv6  Reference.disv  disv
  npf6  Reference.npf  npf
  ic6  Reference.ic  ic
  sto6  Reference.sto  sto
  rch6  Reference.rch  rch_0
  wel6  Reference.wel  wel_0
  riv6  Reference.riv  riv_0
  chd6  Reference.chd  chd_0
  oc6  Reference.oc  oc
END packages

