# File generated by Flopy version 3.6.0 on 07/18/2024 at 13:25:44.
BEGIN griddata
  strt
    INTERNAL  FACTOR  1.0
        15.00000000      15.00000000      15.00000000      15.00000000      15.00000000      15.00000000      15.00000000      15.00000000      15.00000000      15.00000000      15.00000000      15.00000000      15.00000000      15.00000000      15.00000000      15.00000000      15.00000000      15.00000000      15.00000000      15.00000000
        15.00000000      15.00000000      15.00000000      15.00000000      15.00000000      15.00000000      15.00000000      15.00000000      15.00000000      15.00000000      15.00000000      15.00000000      15.00000000      15.00000000      15.00000000      15.00000000      15.00000000      15.00000000      15.00000000      15.00000000
        15.00000000      15.00000000      15.00000000      15.00000000      15.00000000      15.00000000      15.00000000      15.00000000      15.00000000      15.00000000      15.00000000      15.00000000      15.00000000      15.00000000      15.00000000      15.00000000      15.00000000      15.00000000      15.00000000      15.00000000
        15.00000000      15.00000000      15.00000000      15.00000000      15.00000000      15.00000000      15.00000000      15.00000000      15.00000000      15.00000000      15.00000000      15.00000000      15.00000000      15.00000000      15.00000000      15.00000000      15.00000000      15.00000000      15.00000000      15.00000000
        15.00000000      15.00000000      15.00000000      15.00000000      15.00000000      15.00000000      15.00000000      15.00000000      15.00000000      15.00000000      15.00000000      15.00000000      15.00000000      15.00000000      15.00000000      15.00000000      15.00000000      15.00000000      15.00000000      15.00000000
        15.23511778      15.23871241      15.24314340      15.24414816      15.23890462      15.23082948      15.22327435      15.21829998      15.21593360      15.21532941      15.21290086      15.20458886      15.19285460      15.17953193      15.16755834      15.15544826      15.14258943      15.12902238      15.11446878      15.10068669
        15.08735017      15.07603157      15.06611631      15.05711568      15.04945707      15.04378323      15.04082463      15.03958694      15.03902806      15.03803776      15.03683623      15.03563399      15.03530104      15.03599405      15.03793227      15.04063739      15.04334491      15.04729245      15.05335584      15.06221511
        15.07321225      15.08497887      15.09522934      15.10363320      15.11113880      15.11751857      15.12464572      15.13157923      15.13753455      15.14154510      15.14427928      15.14953118      15.16142684      15.17698855      15.19445139      15.21053090      15.22235249      15.23075997      15.23655363      15.23614212
        15.23212144      15.22642891      15.21880332      15.20894004      15.20132899      15.19245985      15.18057730      15.16452268      15.13602307      15.04322019      15.16532669      15.23173667      15.28467403      15.33220933      15.37834842      15.42380326      15.46721809      15.51015230      15.53834966      15.55250161
        15.55604291      15.55559756      15.55267478      15.55181655      15.55763656      15.57559077      15.60171044      15.63441222      15.66643061      15.67703303      15.66420225      15.63875678      15.60815218      15.57162851      15.53028746      15.49307132      15.45394794      15.42027276      15.40310296      15.40063497
        15.39509967      15.39682493      15.39800426      15.39495960      15.38553189      15.37397098      15.36281902      15.35298989      15.34416986      15.33487120      15.32263991      15.30745093      15.29115244      15.27553934      15.26049013      15.24450901      15.22746537      15.20942025      15.19008528      15.17052182
        15.15191812      15.13397880      15.11822475      15.10480467      15.09381529      15.08600380      15.08096505      15.07771540      15.07524921      15.07270840      15.07092106      15.07028095      15.07080854      15.07277188      15.07604749      15.08045633      15.08596638      15.09476663      15.10768100      15.12439322
        15.14326952      15.16257656      15.17976615      15.19469262      15.20783730      15.21933267      15.23098175      15.24223137      15.25351075      15.26457155      15.27659524      15.29282000      15.31303392      15.33384699      15.35404125      15.36945693      15.38026637      15.38675764      15.38852621      15.38269293
        15.37407801      15.36537826      15.35712233      15.34872268      15.34057934      15.33124826      15.32221674      15.31578610      15.31280182      15.31595576      15.38316411      15.45988316      15.54036297      15.62224168      15.70336267      15.78032374      15.85322943      15.91353151      15.95386953      15.98052347
        15.99997958      16.01936420      16.03917450      16.06329021      16.09643520      16.13591966      16.17722668      16.22278938      16.25011999      16.24354160      16.21360060      16.16304331      16.10545094      16.04905745      15.98910049      15.93479642      15.89184643      15.86591511      15.85812499      15.86219878
        15.49861479      15.49557954      15.48961522      15.48061693      15.46910883      15.45594104      15.44208448      15.42862543      15.41480621      15.39982654      15.38320894      15.36624047      15.34963312      15.33374612      15.31780533      15.30091181      15.28279929      15.26337254      15.24306975      15.22210389
        15.20173106      15.18166238      15.16322175      15.14764289      15.13483149      15.12539534      15.11831600      15.11247101      15.10745780      15.10404068      15.10264494      15.10354183      15.10629728      15.10974534      15.11412889      15.12057046      15.13046371      15.14493639      15.16384243      15.18535684
        15.20836776      15.23157172      15.25303843      15.27232878      15.29026558      15.30835269      15.32696369      15.34522977      15.36203075      15.37926632      15.39759542      15.41737902      15.43728731      15.45608289      15.47238892      15.48521178      15.49384800      15.49702166      15.49441852      15.48894115
        15.48275755      15.47577049      15.46858954      15.46130569      15.45410955      15.44990561      15.45279456      15.46542123      15.49047755      15.53105797      15.60295573      15.69427514      15.79038948      15.88523365      15.97662515      16.06325896      16.14471838      16.21168074      16.26702595      16.31872405
        16.37209313      16.43161783      16.48960179      16.54123177      16.59000713      16.63364717      16.66691405      16.69100366      16.69819357      16.67798453      16.63590546      16.57700360      16.51007685      16.44629457      16.38658227      16.33979451      16.30824320      16.29555670      16.29318298      16.29566142
        15.55479526      15.54980720      15.54084742      15.52947718      15.51652957      15.50213943      15.48655287      15.47049013      15.45422219      15.43786594      15.42139142      15.40504802      15.38880099      15.37238738      15.35610726      15.33905878      15.32128549      15.30206881      15.28206894      15.26200141
        15.24215403      15.22270273      15.20393511      15.18719393      15.17329463      15.16184733      15.15256594      15.14479790      15.13879032      15.13568698      15.13565617      15.13833178      15.14258770      15.14779798      15.15453116      15.16424819      15.17921415      15.19887664      15.22072662      15.24355299
        15.26750823      15.29136894      15.31438632      15.33773414      15.36253748      15.38756886      15.41172176      15.43367680      15.45276034      15.47060406      15.48858577      15.50697681      15.52548680      15.54300919      15.55654579      15.56661664      15.57284621      15.57534530      15.57566244      15.57519882
        15.57338691      15.57026989      15.56776373      15.56791998      15.57094481      15.57954947      15.59895999      15.63088610      15.67881859      15.74291737      15.82662264      15.92136289      16.01459508      16.10425286      16.18959411      16.27512826      16.35883084      16.43812747      16.51641802      16.59695365
        16.67912867      16.75699989      16.82752574      16.89057876      16.94163759      16.97998043      17.00020124      17.00437610      16.99519509      16.97184224      16.93491335      16.88846204      16.83333854      16.77662602      16.72934757      16.69330908      16.67059848      16.65559401      16.64736781      16.64432866
        15.58157105      15.57650026      15.56733221      15.55533990      15.54192832      15.52750620      15.51196521      15.49574064      15.47932024      15.46322053      15.44718749      15.43110152      15.41516934      15.39893730      15.38266466      15.36605818      15.34896348      15.33131273      15.31270353      15.29429000
        15.27626506      15.25821065      15.24050980      15.22375996      15.20893605      15.19597646      15.18476130      15.17610656      15.17082904      15.16902351      15.17017173      15.17390809      15.17908391      15.18618388      15.19628337      15.21069598      15.23027273      15.25237530      15.27423805      15.29698894
        15.32108494      15.34617018      15.37214161      15.39984675      15.42883835      15.45612229      15.48014008      15.50063897      15.51815232      15.53459110      15.55099526      15.56811177      15.58485226      15.59963681      15.61084690      15.61940634      15.62682252      15.63368356      15.63995417      15.64465410
        15.64793465      15.65220807      15.66043205      15.67297628      15.69066359      15.71773074      15.75609922      15.80674205      15.86958288      15.94508318      16.02844052      16.11507317      16.19994990      16.28179953      16.36354763      16.45159813      16.54543826      16.64017653      16.73405002      16.82499541
        16.90931313      16.98531211      17.05610517      17.11806497      17.16382798      17.19109965      17.20191492      17.19970909      17.18772759      17.17184911      17.14940318      17.11896116      17.08215787      17.04042579      17.00123251      16.97030480      16.94911163      16.93192259      16.92075881      16.91581039
        15.59223146      15.58686170      15.57770289      15.56637794      15.55389484      15.54049812      15.52633826      15.51166227      15.49623595      15.48061184      15.46525191      15.44978283      15.43427571      15.41862701      15.40294457      15.38725452      15.37143725      15.35548237      15.33882567      15.32198380
        15.30562888      15.28904087      15.27267088      15.25693244      15.24205718      15.22853671      15.21672961      15.20823012      15.20397975      15.20288720      15.20448567      15.20801525      15.21375429      15.22323459      15.23796399      15.25760741      15.28012412      15.30257813      15.32456996      15.34837558
        15.37443289      15.40181103      15.42958934      15.45841355      15.48618763      15.51052996      15.53116550      15.54883419      15.56394811      15.57845301      15.59336315      15.60884069      15.62315763      15.63552608      15.64642708      15.65688008      15.66750531      15.67866911      15.68880543      15.69805018
        15.70836157      15.72267237      15.74281164      15.76807882      15.80109050      15.84546127      15.90022722      15.96465510      16.03745466      16.11787572      16.20083053      16.28454088      16.36586649      16.44798711      16.53617666      16.63336492      16.73560618      16.83634497      16.93057189      17.01545873
        17.09400955      17.16808046      17.23510166      17.28731633      17.32079085      17.34064099      17.34900567      17.34816124      17.34119592      17.32837253      17.30914714      17.28423623      17.25541080      17.22448655      17.19473351      17.16982116      17.15047944      17.13539528      17.12298011      17.11721554
        15.59337832      15.58780902      15.57929015      15.56932095      15.55862923      15.54725465      15.53512129      15.52224151      15.50837870      15.49379258      15.47908741      15.46434329      15.44942742      15.43452729      15.41959907      15.40459816      15.38989963      15.37521791      15.36019421      15.34470331
        15.32969837      15.31512453      15.30071456      15.28657250      15.27294705      15.26025758      15.24953060      15.24198474      15.23821089      15.23752510      15.23957700      15.24361611      15.25101024      15.26374322      15.28235886      15.30496157      15.32888263      15.35123890      15.37392735      15.39921390
        15.42643580      15.45382800      15.48047283      15.50704565      15.53062088      15.55028077      15.56701857      15.58151179      15.59446922      15.60761122      15.62164085      15.63568689      15.64911385      15.66179996      15.67402674      15.68678189      15.70015987      15.71382850      15.72754195      15.74310084
        15.76206338      15.78575705      15.81474745      15.85046853      15.89453753      15.94938053      16.01470054      16.08783390      16.16812053      16.25362724      16.34222683      16.43168801      16.52047062      16.61273351      16.70985285      16.81313865      16.91599336      17.01132989      17.09650181      17.17543731
        17.25141859      17.32150189      17.38058968      17.42183269      17.44681336      17.46344435      17.47277467      17.47319956      17.46523143      17.44943987      17.42903537      17.40541295      17.38078819      17.35630996      17.33351461      17.31275993      17.29429702      17.27964775      17.26713363      17.25990825
        15.59040674      15.58538395      15.57805154      15.56962682      15.56061128      15.55121655      15.54103624      15.52971642      15.51726890      15.50401716      15.49024561      15.47628926      15.46201663      15.44755352      15.43337783      15.41913526      15.40523027      15.39165127      15.37796192      15.36384166
        15.34994090      15.33691853      15.32436130      15.31223904      15.30065122      15.29022455      15.28217351      15.27650054      15.27355358      15.27380458      15.27697911      15.28365594      15.29522075      15.31198823      15.33318177      15.35657440      15.37888251      15.39958184      15.42172326      15.44603040
        15.47120174      15.49576140      15.51952425      15.54150477      15.56013319      15.57574472      15.58952135      15.60208934      15.61431266      15.62715869      15.64091734      15.65517628      15.66946831      15.68328437      15.69739861      15.71261164      15.72890255      15.74589839      15.76448740      15.78558627
        15.81044611      15.83998408      15.87408891      15.91550078      15.96623853      16.02861982      16.10041859      16.17841037      16.26402546      16.35831363      16.45892415      16.56041457      16.66032953      16.75881373      16.86035599      16.96494495      17.06411905      17.15199100      17.23370446      17.31230640
        17.38566853      17.45044780      17.50189000      17.53687576      17.55897380      17.57283096      17.57868879      17.57696518      17.56567143      17.54811829      17.52812510      17.50627618      17.48447125      17.46329190      17.44293032      17.42298501      17.40333775      17.38684284      17.37395658      17.36632627
        15.58702555      15.58298340      15.57697816      15.57004839      15.56260647      15.55471955      15.54589729      15.53580656      15.52446263      15.51224467      15.49953474      15.48638010      15.47299406      15.45942971      15.44593721      15.43254878      15.41938331      15.40670944      15.39412843      15.38134811
        15.36871865      15.35684951      15.34601780      15.33618509      15.32734231      15.32005824      15.31511101      15.31197651      15.31088644      15.31291745      15.31909687      15.33031500      15.34643492      15.36642477      15.38854466      15.40941478      15.42752318      15.44518937      15.46428153      15.48460444
        15.50558729      15.52646366      15.54642030      15.56409540      15.57936021      15.59283236      15.60539921      15.61760070      15.62989801      15.64333152      15.65787511      15.67294482      15.68815711      15.70357436      15.72010471      15.73802112      15.75686092      15.77693613      15.79862713      15.82288673
        15.85139606      15.88393417      15.92317473      15.97210757      16.03176390      16.10109220      16.17846258      16.26319826      16.35780817      16.46307888      16.57108532      16.67529462      16.77635605      16.87641787      16.97980693      17.08278872      17.17848613      17.26551174      17.34841205      17.42804501
        17.50346448      17.56533748      17.61052421      17.64084215      17.66057927      17.67177063      17.67358725      17.66773237      17.65369285      17.63465494      17.61415585      17.59309804      17.57219375      17.55028110      17.52917249      17.50972707      17.49162872      17.47520733      17.46355813      17.45730576
        15.58482330      15.58167067      15.57689240      15.57128831      15.56518526      15.55840503      15.55050529      15.54152156      15.53136384      15.52005362      15.50800948      15.49570846      15.48331223      15.47072691      15.45807455      15.44556520      15.43328933      15.42132184      15.40959114      15.39803312
        15.38679822      15.37646759      15.36765050      15.36039314      15.35468185      15.35084496      15.34874151      15.34863505      15.35062461      15.35606755      15.36630033      15.38089504      15.39869264      15.41850348      15.43758186      15.45340766      15.46717374      15.48141399      15.49677080      15.51314704
        15.53067410      15.54857199      15.56555535      15.58103412      15.59506296      15.60789976      15.62034152      15.63294001      15.64597819      15.66011361      15.67528985      15.69120095      15.70765616      15.72492143      15.74347138      15.76316678      15.78378749      15.80585538      15.82993510      15.85744582
        15.88971788      15.92836207      15.97732868      16.03694018      16.10528148      16.18262007      16.26795926      16.36157315      16.46400893      16.57261570      16.67785966      16.77794450      16.87611661      16.97487196      17.07699691      17.17821574      17.27321941      17.36110290      17.44454863      17.52680629
        17.60175186      17.65960592      17.70020132      17.72726631      17.74416013      17.75285096      17.75203789      17.74384577      17.72933185      17.71041692      17.68991266      17.66822644      17.64688982      17.62540495      17.60443675      17.58496562      17.56756079      17.55271341      17.54230493      17.53676210
        15.58428305      15.58170992      15.57784113      15.57326799      15.56801265      15.56204340      15.55505146      15.54702247      15.53793828      15.52766838      15.51646049      15.50485906      15.49325931      15.48168299      15.46989798      15.45806230      15.44658077      15.43544573      15.42467482      15.41434035
        15.40483982      15.39654917      15.39004796      15.38541643      15.38247532      15.38164153      15.38248308      15.38568639      15.39139306      15.40019760      15.41245173      15.42725456      15.44373987      15.46010665      15.47390406      15.48527579      15.49619450      15.50816263      15.52122974      15.53545704
        15.55096152      15.56709994      15.58269692      15.59718239      15.61075951      15.62346422      15.63597763      15.64868653      15.66194214      15.67655327      15.69251166      15.70945960      15.72734035      15.74636045      15.76677268      15.78868838      15.81159355      15.83667163      15.86480461      15.89769740
        15.93749956      15.98616512      16.04569769      16.11416896      16.18985623      16.27366225      16.36477862      16.46306938      16.56822940      16.67484898      16.77544062      16.87180690      16.96718046      17.06525970      17.16637271      17.26598068      17.35830784      17.44300483      17.52609709      17.60759231
        17.67778227      17.73057159      17.76828158      17.79367892      17.80866212      17.81401341      17.81039490      17.80116662      17.78727425      17.76987935      17.75061998      17.72983906      17.70871903      17.68830612      17.66854707      17.64923232      17.63219983      17.61859072      17.60872379      17.60368684
        15.58508070      15.58295697      15.57970513      15.57577004      15.57115074      15.56572271      15.55939384      15.55223693      15.54415776      15.53499931      15.52493492      15.51440339      15.50368083      15.49288450      15.48207762      15.47124294      15.46070855      15.45063571      15.44124871      15.43269175
        15.42503638      15.41868397      15.41413494      15.41184345      15.41165162      15.41315251      15.41647786      15.42189182      15.42978610      15.43999762      15.45210041      15.46567818      15.47962911      15.49189297      15.50190410      15.51107725      15.52088652      15.53151422      15.54309105      15.55586867
        15.57022882      15.58535113      15.60004247      15.61381633      15.62661938      15.63849417      15.65043089      15.66296818      15.67652701      15.69191053      15.70887951      15.72717255      15.74694671      15.76826465      15.79153176      15.81614429      15.84267822      15.87328206      15.90862974      15.94987155
        15.99929675      16.05760113      16.12466289      16.19755151      16.27661058      16.36280671      16.45692133      16.55797164      16.66156739      16.76361815      16.86096257      16.95573415      17.05075699      17.14776911      17.24452920      17.33699756      17.42331356      17.50581973      17.58772438      17.66475934
        17.72869970      17.77699566      17.81240698      17.83540988      17.84669672      17.84779984      17.84176201      17.83183386      17.81801584      17.80174531      17.78452850      17.76686737      17.74897760      17.73080816      17.71345160      17.69711639      17.68265638      17.67114304      17.66233425      17.65792850
        15.58696723      15.58512175      15.58227297      15.57873219      15.57459252      15.56978540      15.56404555      15.55749143      15.55023816      15.54214868      15.53326769      15.52399345      15.51455039      15.50489842      15.49541036      15.48631751      15.47779593      15.46972269      15.46234004      15.45567291
        15.44962653      15.44470177      15.44162444      15.44076799      15.44209366      15.44480438      15.44913595      15.45543947      15.46450325      15.47525805      15.48705035      15.49892574      15.50975867      15.51878904      15.52671226      15.53481715      15.54394448      15.55384568      15.56458714      15.57674704
        15.59052088      15.60454518      15.61762894      15.62959876      15.64077042      15.65174961      15.66346408      15.67621022      15.69064927      15.70737930      15.72570259      15.74569419      15.76783209      15.79231625      15.81875738      15.84743647      15.88082188      15.91972370      15.96358957      16.01349102
        16.07152124      16.13616531      16.20612809      16.28069574      16.36116686      16.44814187      16.54234382      16.64039821      16.73898084      16.83817979      16.93368105      17.02700748      17.11982830      17.21142534      17.30002801      17.38470281      17.46559364      17.54428994      17.62188535      17.69294875
        17.75104999      17.79490695      17.82645282      17.84591761      17.85358824      17.85233101      17.84509481      17.83493076      17.82190568      17.80749878      17.79283381      17.77829149      17.76444110      17.75069728      17.73754976      17.72527101      17.71419652      17.70499470      17.69766259      17.69352861
        15.59003035      15.58832906      15.58575164      15.58255409      15.57879127      15.57448407      15.56934424      15.56332265      15.55680594      15.54969515      15.54198136      15.53402748      15.52618167      15.51834076      15.51085624      15.50396345      15.49788089      15.49235945      15.48716170      15.48220039
        15.47774614      15.47412286      15.47180417      15.47091192      15.47177602      15.47453093      15.47935244      15.48698168      15.49696401      15.50781362      15.51857693      15.52816379      15.53614319      15.54317280      15.55006503      15.55762838      15.56615367      15.57560611      15.58618903      15.59788300
        15.61027209      15.62204548      15.63282612      15.64313019      15.65336841      15.66403193      15.67590215      15.68971146      15.70590853      15.72433582      15.74427453      15.76663438      15.79241074      15.82133582      15.85357763      15.89002887      15.93158767      15.97729695      16.02828311      16.08564292
        16.14887898      16.21556538      16.28643357      16.36164683      16.44077739      16.52566087      16.61627478      16.70993384      16.80584056      16.90201625      16.99444072      17.08391667      17.17071350      17.25483058      17.33545012      17.41307586      17.48815120      17.56162829      17.63318169      17.69680279
        17.74847670      17.78798487      17.81595858      17.83263598      17.83899235      17.83767280      17.83110482      17.82173644      17.81015961      17.79782533      17.78560601      17.77377866      17.76310563      17.75331052      17.74426781      17.73569827      17.72778155      17.72091627      17.71561680      17.71251748
        15.59440273      15.59285771      15.59046716      15.58752010      15.58406653      15.58019113      15.57582622      15.57067569      15.56489632      15.55858160      15.55197759      15.54526797      15.53887347      15.53305754      15.52760584      15.52259589      15.51820932      15.51439625      15.51085474      15.50760823
        15.50502184      15.50285986      15.50085299      15.49959946      15.49984204      15.50263796      15.50846251      15.51717491      15.52714985      15.53716366      15.54634772      15.55413666      15.56059181      15.56663148      15.57292194      15.57963695      15.58715549      15.59594389      15.60545949      15.61557278
        15.62582106      15.63573953      15.64533430      15.65495011      15.66499108      15.67609675      15.68925000      15.70505440      15.72343436      15.74373005      15.76636631      15.79308132      15.82465590      15.86010159      15.89919693      15.94227020      15.98919364      16.04184193      16.10048752      16.16251454
        16.22743591      16.29485780      16.36551558      16.43849332      16.51568981      16.59798094      16.68422258      16.77395384      16.86637541      16.95875642      17.04628972      17.12769121      17.20517917      17.28090154      17.35512279      17.42754261      17.49810818      17.56574409      17.62946596      17.68632373
        17.73241044      17.76684113      17.79086015      17.80635190      17.81308609      17.81315504      17.80830778      17.80040997      17.79050033      17.78012642      17.77047383      17.76163305      17.75417826      17.74773749      17.74174426      17.73595625      17.73061741      17.72593057      17.72230293      17.72033894
        15.59963939      15.59829700      15.59614024      15.59351882      15.59057668      15.58734891      15.58366405      15.57951674      15.57482993      15.56946321      15.56356029      15.55773322      15.55242420      15.54779693      15.54361192      15.53989069      15.53668127      15.53404130      15.53182121      15.52997913
        15.52869398      15.52759676      15.52654738      15.52615545      15.52726803      15.53104174      15.53792219      15.54662123      15.55545746      15.56359106      15.57087832      15.57729505      15.58314111      15.58868748      15.59416597      15.59988507      15.60655370      15.61378321      15.62122977      15.62954945
        15.63842218      15.64740240      15.65662079      15.66629007      15.67686451      15.68909023      15.70420001      15.72259529      15.74350679      15.76680569      15.79430036      15.82720182      15.86544165      15.90730759      15.95272456      16.00245264      16.05747939      16.11808427      16.17980362      16.24129699
        16.30565558      16.37166474      16.44002660      16.51154682      16.58732098      16.66616472      16.74947502      16.83575223      16.92331732      17.00918615      17.08725101      17.15779498      17.22589583      17.29398104      17.36256067      17.43116325      17.49732399      17.55876694      17.61496524      17.66486446
        17.70543636      17.73594689      17.75776848      17.77229802      17.77967550      17.78115681      17.77810205      17.77248473      17.76565046      17.75836340      17.75190069      17.74627406      17.74171346      17.73772950      17.73397371      17.73015504      17.72654437      17.72338729      17.72092220      17.71955619
        15.60501022      15.60388981      15.60211354      15.59994392      15.59759719      15.59511274      15.59227851      15.58901715      15.58527228      15.58086311      15.57582721      15.57070670      15.56614247      15.56213884      15.55880402      15.55604053      15.55395595      15.55225639      15.55074745      15.54969788
        15.54899222      15.54850337      15.54863386      15.54981900      15.55277143      15.55806319      15.56554347      15.57329905      15.58016640      15.58633301      15.59204388      15.59751812      15.60283184      15.60777246      15.61254455      15.61752141      15.62296901      15.62857993      15.63492760      15.64229817