# File generated by Flopy version 3.7.0 on 06/28/2024 at 12:37:25.
BEGIN options
END options

BEGIN griddata
  strt
    INTERNAL  FACTOR  1.0
        15.00000000      15.00000000      15.00000000      15.00000000      15.00000000      15.00000000      15.00000000      15.00000000      15.00000000      15.00000000      15.00000000      15.00000000      15.00000000      15.00000000      15.00000000      15.00000000      15.00000000      15.00000000      15.00000000      15.00000000
        15.00000000      15.00000000      15.00000000      15.00000000      15.00000000      15.00000000      15.00000000      15.00000000      15.00000000      15.00000000      15.00000000      15.00000000      15.00000000      15.00000000      15.00000000      15.00000000      15.00000000      15.00000000      15.00000000      15.00000000
        15.00000000      15.00000000      15.00000000      15.00000000      15.00000000      15.00000000      15.00000000      15.00000000      15.00000000      15.00000000      15.00000000      15.00000000      15.00000000      15.00000000      15.00000000      15.00000000      15.00000000      15.00000000      15.00000000      15.00000000
        15.00000000      15.00000000      15.00000000      15.00000000      15.00000000      15.00000000      15.00000000      15.00000000      15.00000000      15.00000000      15.00000000      15.00000000      15.00000000      15.00000000      15.00000000      15.00000000      15.00000000      15.00000000      15.00000000      15.00000000
        15.00000000      15.00000000      15.00000000      15.00000000      15.00000000      15.00000000      15.00000000      15.00000000      15.00000000      15.00000000      15.00000000      15.00000000      15.00000000      15.00000000      15.00000000      15.00000000      15.00000000      15.00000000      15.00000000      15.00000000
        15.00686863      15.00697099      15.00702128      15.00681013      15.00633535      15.00567847      15.00495340      15.00433805      15.00376982      15.00316210      15.00261536      15.00220992      15.00186467      15.00158367      15.00139964      15.00128796      15.00122250      15.00116284      15.00111351      15.00105024
        15.00096861      15.00088992      15.00079613      15.00071145      15.00060440      15.00046767      15.00029002      15.00001226      14.99963330      14.99917171      14.99867615      14.99822225      14.99776873      14.99723895      14.99658899      14.99597971      14.99554542      14.99516478      14.99484950      14.99464288
        14.99453010      14.99467567      14.99506055      14.99548491      14.99591253      14.99629101      14.99656455      14.99675839      14.99686252      14.99704686      14.99730236      14.99765905      14.99808528      14.99851536      14.99891044      14.99929209      14.99963015      14.99993622      15.00024393      15.00051613
        15.00074823      15.00096579      15.00116814      15.00134450      15.00151339      15.00162765      15.00168525      15.00171940      15.00173709      15.00177184      15.00189910      15.00213940      15.00257210      15.00303099      15.00329804      15.00342017      15.00345340      15.00340943      15.00333383      15.00336309
        15.00346928      15.00369779      15.00407954      15.00452784      15.00489103      15.00516692      15.00542083      15.00558370      15.00576540      15.00590315      15.00601056      15.00616650      15.00618493      15.00597090      15.00568388      15.00522746      15.00475860      15.00438039      15.00422138      15.00425987
        15.01218569      15.01218394      15.01197239      15.01141233      15.01048798      15.00943079      15.00838292      15.00740676      15.00651665      15.00559049      15.00470431      15.00400908      15.00348248      15.00308374      15.00280301      15.00262552      15.00250319      15.00237750      15.00221615      15.00203403
        15.00183944      15.00165152      15.00144530      15.00123738      15.00100404      15.00071291      15.00031581      14.99971382      14.99893955      14.99806933      14.99717531      14.99630224      14.99536340      14.99426426      14.99302224      14.99192494      14.99084880      14.98970733      14.98876184      14.98801431
        14.98761134      14.98765018      14.98806896      14.98872850      14.98942673      14.98993032      14.99011841      14.99044154      14.99088955      14.99154692      14.99248377      14.99350382      14.99470274      14.99592697      14.99689167      14.99774431      14.99858809      14.99937363      15.00010465      15.00075162
        15.00135409      15.00195981      15.00251501      15.00300300      15.00340598      15.00371683      15.00390106      15.00407243      15.00430447      15.00461162      15.00506398      15.00559518      15.00618887      15.00663782      15.00684780      15.00691012      15.00681865      15.00661003      15.00641615      15.00650160
        15.00673372      15.00706057      15.00756138      15.00807573      15.00860826      15.00913014      15.00957923      15.00991008      15.01020202      15.01048903      15.01058946      15.01060331      15.01040352      15.00996729      15.00942129      15.00883005      15.00834795      15.00805480      15.00802067      15.00805702
        15.01559133      15.01531453      15.01475638      15.01396281      15.01294345      15.01184840      15.01079627      15.00972266      15.00866613      15.00759399      15.00660504      15.00576949      15.00511553      15.00461538      15.00423382      15.00394130      15.00369602      15.00342914      15.00311264      15.00278849
        15.00248753      15.00219811      15.00188206      15.00154706      15.00116283      15.00068970      15.00002594      14.99908313      14.99796232      14.99674335      14.99543917      14.99406002      14.99253184      14.99082263      14.98896293      14.98704154      14.98492200      14.98276894      14.98069138      14.97871392
        14.97752351      14.97716999      14.97732397      14.97755943      14.97768901      14.97790535      14.97855611      14.97957928      14.98086921      14.98270998      14.98498578      14.98726841      14.98951663      14.99160364      14.99352872      14.99516017      14.99667156      14.99807281      14.99937189      15.00056368
        15.00171019      15.00283889      15.00387793      15.00478661      15.00550926      15.00607274      15.00647955      15.00684251      15.00725660      15.00769954      15.00819968      15.00865285      15.00902945      15.00933268      15.00955026      15.00971222      15.00976771      15.00974836      15.00971356      15.00983399
        15.01004260      15.01031127      15.01077676      15.01138860      15.01203153      15.01257001      15.01306672      15.01351063      15.01385936      15.01408290      15.01399720      15.01360818      15.01313333      15.01262495      15.01213251      15.01166218      15.01125036      15.01095955      15.01081217      15.01075331
        15.01713405      15.01681021      15.01626333      15.01553556      15.01464497      15.01368458      15.01269474      15.01165891      15.01061844      15.00955418      15.00852408      15.00760923      15.00681815      15.00612857      15.00556586      15.00508747      15.00465035      15.00419196      15.00373410      15.00331097
        15.00291852      15.00253285      15.00210139      15.00163021      15.00104956      15.00032924      14.99937760      14.99809662      14.99662457      14.99494633      14.99305339      14.99100749      14.98882251      14.98634624      14.98352884      14.98023761      14.97662100      14.97283954      14.96887361      14.96537638
        14.96272754      14.96113410      14.95958835      14.95839790      14.95820153      14.95903810      14.96130963      14.96418964      14.96744710      14.97112557      14.97510361      14.97901759      14.98271306      14.98592392      14.98885316      14.99158234      14.99401922      14.99611808      14.99797862      14.99972172
        15.00145226      15.00318247      15.00473820      15.00604194      15.00706139      15.00786433      15.00848476      15.00897300      15.00939173      15.00976446      15.01016199      15.01053533      15.01094180      15.01147631      15.01206725      15.01262748      15.01304792      15.01332242      15.01345360      15.01352229
        15.01353783      15.01365819      15.01406598      15.01463728      15.01516962      15.01562572      15.01612553      15.01660463      15.01690056      15.01690888      15.01662652      15.01610627      15.01549417      15.01490225      15.01436141      15.01383875      15.01336829      15.01295813      15.01269221      15.01258753
        15.01816677      15.01788798      15.01747253      15.01692328      15.01618088      15.01533297      15.01444598      15.01349906      15.01254122      15.01153185      15.01049839      15.00950045      15.00852472      15.00757790      15.00674920      15.00604383      15.00543571      15.00484469      15.00423743      15.00367964
        15.00315546      15.00263614      15.00202464      15.00131646      15.00043480      14.99941333      14.99818036      14.99647537      14.99443839      14.99206448      14.98940458      14.98654078      14.98327082      14.97938300      14.97477502      14.96977244      14.96425878      14.95813926      14.95154132      14.94561620
        14.93995276      14.93538289      14.93212216      14.93123447      14.93257506      14.93590037      14.94032531      14.94568816      14.95182340      14.95800048      14.96414855      14.96984114      14.97510451      14.97988379      14.98396590      14.98763516      14.99082606      14.99349348      14.99582526      14.99803380
        15.00032757      15.00264602      15.00473701      15.00644976      15.00778708      15.00883806      15.00960868      15.01017769      15.01063408      15.01106003      15.01157141      15.01217241      15.01293309      15.01398087      15.01510312      15.01606236      15.01677236      15.01716502      15.01724249      15.01717458
        15.01704375      15.01703667      15.01728696      15.01763309      15.01800647      15.01841242      15.01882320      15.01923583      15.01944332      15.01936299      15.01902338      15.01847326      15.01769958      15.01689456      15.01614112      15.01541834      15.01475369      15.01416765      15.01378542      15.01360054
        15.01930580      15.01910678      15.01876833      15.01832513      15.01772440      15.01699284      15.01623774      15.01540942      15.01452860      15.01350297      15.01238248      15.01123108      15.01002467      15.00882394      15.00775972      15.00686113      15.00608826      15.00534150      15.00453574      15.00374598
        15.00297713      15.00217894      15.00118955      15.00011584      14.99889086      14.99755457      14.99588480      14.99338441      14.99044957      14.98708313      14.98326730      14.97865386      14.97315940      14.96657376      14.95888082      14.95021585      14.94133525      14.93206058      14.92346809      14.91547188
        14.90836397      14.90330058      14.90170210      14.90313376      14.90652870      14.91222551      14.91922610      14.92751124      14.93654268      14.94532152      14.95370682      14.96107025      14.96768256      14.97369898      14.97883417      14.98332084      14.98705549      14.98997090      14.99245878      14.99489031
        14.99776579      15.00090108      15.00372993      15.00604476      15.00780205      15.00914416      15.01014967      15.01092205      15.01156116      15.01221050      15.01302903      15.01402621      15.01531489      15.01693477      15.01840178      15.01951091      15.02019514      15.02048439      15.02048067      15.02039109
        15.02021724      15.02006210      15.02002272      15.02009721      15.02034219      15.02067030      15.02097204      15.02129838      15.02151485      15.02150075      15.02111450      15.02033032      15.01927124      15.01817424      15.01712265      15.01609789      15.01518159      15.01441110      15.01390933      15.01365375
        15.02074041      15.02055448      15.02026241      15.01991559      15.01949955      15.01893881      15.01828353      15.01745841      15.01647313      15.01527937      15.01396063      15.01260001      15.01118864      15.00975444      15.00849167      15.00740945      15.00642402      15.00536429      15.00410814      15.00283488
        15.00156182      15.00025264      14.99875943      14.99707693      14.99516808      14.99301422      14.99033085      14.98671278      14.98235122      14.97708336      14.97023018      14.96170370      14.95158025      14.94020872      14.92824542      14.91629339      14.90544981      14.89615594      14.88821282      14.88089104
        14.87599938      14.87344618      14.87419920      14.87744418      14.88290366      14.89104555      14.90087749      14.91146179      14.92256446      14.93340579      14.94386709      14.95275886      14.96035724      14.96718328      14.97306578      14.97804091      14.98190005      14.98460451      14.98676096      14.98946871
        14.99341856      14.99792866      15.00188101      15.00500567      15.00737112      15.00913530      15.01049650      15.01159858      15.01256363      15.01356735      15.01477012      15.01619912      15.01783472      15.01956959      15.02096743      15.02201671      15.02266389      15.02297137      15.02299671      15.02285016
        15.02237493      15.02184807      15.02151124      15.02127333      15.02129969      15.02143481      15.02150289      15.02169865      15.02193904      15.02191162      15.02138559      15.02035915      15.01901220      15.01763114      15.01637076      15.01526075      15.01434807      15.01359447      15.01310892      15.01285461
        15.02248145      15.02229320      15.02205245      15.02180443      15.02152206      15.02106300      15.02038926      15.01943173      15.01828874      15.01689967      15.01533662      15.01371818      15.01207902      15.01038640      15.00880398      15.00731919      15.00573392      15.00386941      15.00161699      14.99941003
        14.99732320      14.99512628      14.99237706      14.98900363      14.98536188      14.98156951      14.97735873      14.97157071      14.96385922      14.95414906      14.94232313      14.92896082      14.91461059      14.90062006      14.88752039      14.87602825      14.86622971      14.85861550      14.85188287      14.84697801
        14.84525209      14.84519477      14.84728969      14.85218843      14.86008964      14.87095445      14.88329228      14.89582560      14.90855052      14.92077697      14.93272071      14.94315373      14.95185636      14.95948755      14.96610134      14.97162692      14.97535706      14.97714535      14.97809310      14.98081719
        14.98689604      14.99382468      14.99958093      15.00376552      15.00680501      15.00911992      15.01094892      15.01247988      15.01381883      15.01504297      15.01634570      15.01776459      15.01925716      15.02076539      15.02199096      15.02309798      15.02383305      15.02399064      15.02356992      15.02281190
        15.02147860      15.02008665      15.01908251      15.01812500      15.01779394      15.01794499      15.01820965      15.01862371      15.01913612      15.01932753      15.01889853      15.01786899      15.01659538      15.01536123      15.01432756      15.01347078      15.01274997      15.01211540      15.01171005      15.01150585
        15.02479002      15.02460408      15.02431770      15.02406553      15.02375585      15.02322831      15.02246028      15.02140728      15.02006786      15.01843481      15.01659112      15.01464682      15.01260772      15.01030422      15.00770408      15.00478243      15.00159532      14.99798443      14.99381183      14.98940037
        14.98561518      14.98067785      14.97443092      14.96843688      14.96292568      14.95736551      14.95069168      14.94094026      14.92900800      14.91544817      14.90070926      14.88590584      14.87196145      14.85872161      14.84584663      14.83489758      14.82616294      14.81978923      14.81576450      14.81381553
        14.81413856      14.81640892      14.82099501      14.82851071      14.83912788      14.85178177      14.86518107      14.87885135      14.89266724      14.90603616      14.91904490      14.93089310      14.94109025      14.95014528      14.95776140      14.96397363      14.96762815      14.96748382      14.96486029      14.96549447
        14.97600872      14.98814250      14.99676228      15.00238647      15.00626168      15.00922638      15.01151365      15.01333414      15.01467807      15.01563768      15.01643770      15.01717059      15.01807059      15.01906792      15.01968310      15.02034577      15.02043553      15.01926594      15.01728639      15.01521288
        15.01275216      15.01055178      15.00928796      15.00846691      15.00865329      15.00964513      15.01089190      15.01202030      15.01308121      15.01381074      15.01389055      15.01345167      15.01280674      15.01220276      15.01170260      15.01121134      15.01068889      15.01017091      15.00986648      15.00972273
        15.02791612      15.02767313      15.02732184      15.02694130      15.02641365      15.02574100      15.02492968      15.02374675      15.02206165      15.01990357      15.01742120      15.01469220      15.01149053      15.00701189      15.00137194      14.99503943      14.98796237      14.98023372      14.97163307      14.97229104
        14.96871603      14.95620236      14.95175884      14.95390083      14.94604450      14.93878950      14.93284842      14.92691876      14.92024359      14.91160076      14.89924312      14.88535184      14.87100050      14.85634213      14.84242747      14.82843977      14.81397147      14.79947777      14.78859142      14.78196207
        14.77870578      14.77818460      14.77865062      14.78160109      14.78774364      14.79631272      14.80700797      14.81945192      14.83317003      14.84680229      14.86021120      14.87401815      14.88816118      14.90241694      14.91573224      14.92765715      14.93854259      14.94814677      14.95554534      14.95900594
        14.95530322      14.93989569      14.93788986      14.94044061      14.90916658      14.91259511      14.95292766      14.97945144      14.99350686      15.00116560      15.00578307      15.00900988      15.01134494      15.01297360      15.01368677      15.01348659      15.01248910      15.01100191      15.00975268      15.00873796
        15.00719328      15.00629779      15.00471876      15.00175369      14.99848183      14.99616483      14.99423260      14.99302070      14.99306717      14.99406101      14.99607230      14.99832027      15.00070673      15.00288655      15.00473664      15.00627501      15.00738360      15.00803892      15.00822581      15.00821884
        15.00810343      15.00797218      15.00781134      15.00765483      15.00754686      15.00747344      15.03161469      15.03143740      15.03115182      15.03074972      15.03017611      15.02931679      15.02814292      15.02642055      15.02395816      15.02061606      15.01636924      15.01108095      15.00415572      14.99420769
        14.98147654      14.96710102      14.95193245      14.93630290      14.93815711      14.93463827      14.90698292      14.89974944      14.93659164      14.93513427      14.92203090      14.92289703      14.92216143      14.91585545      14.91618930      14.91584582      14.91272381      14.91191754      14.93220401      14.92838708
        14.92076685      14.91943067      14.91517000      14.91453573      14.91134507      14.91107699      14.91246652      14.91480467      14.90342299      14.90635822      14.90792536      14.90770396      14.90434163      14.90375719      14.89891002      14.89774860      14.88699871      14.88464850      14.90716355      14.90637296
        14.90317972      14.90288109      14.90329074      14.89670799      14.89613041      14.89728669      14.88305120      14.88306753      14.91663569      14.91210845      14.88899340      14.88909944      14.89740001      14.89368934      14.88932182      14.88430506      14.87840838      14.86925444      14.85549911      14.84001865
        14.82450124      14.80891928      14.79259676      14.77584468      14.75924370      14.74502549      14.73629383      14.73277751      14.73299220      14.73653254      14.74232739      14.75036525      14.76075238      14.77174509      14.78372249      14.79637634      14.80975722      14.82317804      14.83618786      14.85012768
        14.86546275      14.88224040      14.89826784      14.91266914      14.92555276      14.93694400      14.94643940      14.95100250      14.94529503      14.92533296      14.89861774      14.92071682      14.89042118      14.86927428      14.84449579      14.83387579      14.78997326      14.75906873      14.75479693      14.69968625
        14.66248239      14.66047501      14.51874636      14.85048228      14.87596514      14.77441554      14.80676697      14.70429269      14.74110601      14.66230019      14.72667067      14.78399888      14.84516247      14.83149610      14.76511028      14.69962851      14.65999644      14.73451655      14.72201099      14.79411200
        14.77496526      14.85273959      14.82794885      14.69920554      14.73808435      14.73609185      14.75609077      14.78649950      14.78250222      14.80520154      14.84014336      14.83160780      14.85708518      14.91041675      14.94158408      14.90027834      14.93660706      14.97276411      14.99115962      14.99953017
        15.00401501      15.00687926      15.00844702      15.00889771      15.00749733      15.00427936      14.99943637      14.99391747      14.98914045      14.98503220      14.98079612      14.97797813      14.97521212      14.97262431      14.97068859      14.97051856      14.97111667      14.97244764      14.97502347      14.97799463
        14.98174735      14.98554410      14.98900407      14.99224383      14.99509629      14.99766504      14.99986119      15.00120945      15.00200870      15.00262208      15.00312294      15.00370244      15.00424177      15.00467149      15.00493940      15.00506518      15.03689635      15.03696924      15.03669344      15.03601087
        15.03501580      15.03357068      15.03164409      15.02882244      15.02450054      15.01815333      15.00927408      14.99791527      14.98314561      14.96229700      14.93683047      14.91038407      14.88584677      14.86641328      14.85251042      14.86072240      14.85859950      14.83537032      14.83481875      14.84669017
        14.84581682      14.84389109      14.84083371      14.83741096      14.83153719      14.82055902      14.80476907      14.78676251      14.76706942      14.74640286      14.72618048      14.70946867      14.69586175      14.68662184      14.68330630      14.68485872      14.69022922      14.69866837      14.70975078      14.72144777
        14.73326629      14.74461742      14.75587432      14.76756990      14.78027864      14.79350829      14.80746485      14.82357224      14.84165632      14.86119964      14.88008334      14.89713469      14.91250927      14.92572206      14.93731864      14.94519833      14.94503545      14.92828644      14.88898852      14.89095345
        14.92057773      14.92286298      14.94320692      14.97519875      14.98872563      14.99494099      14.99808037      14.99955985      14.99913225      14.99653228      14.99100179      14.98278361      14.97360380      14.96350202      14.95419619      14.94765673      14.94199333      14.93903576      14.93786592      14.93862856
        14.94024909      14.94341179      14.94748737      14.95156071      14.95622519      14.96079121      14.96552859      14.97074097      14.97577793      14.98027434      14.98410877      14.98745407      14.99023465      14.99235193      14.99417685      14.99601810      14.99778577      14.99937931      15.00073690      15.00170035
        15.00235520      15.00269534      15.04522564      15.04472746      15.04380818      15.04244456      15.04048589      15.03776296      15.03414887      15.02888792      15.02084144      15.00823816      14.99062172      14.96834994      14.94041381      14.90556119      14.86832813      14.83537471      14.81050999      14.79610692
        14.78897065      14.78706812      14.78496920      14.78416442      14.78275412      14.78018085      14.77599515      14.76675259      14.75303747      14.73479137      14.71279064      14.68733886      14.66489134      14.64857890      14.63898679      14.63468135      14.63503812      14.63934787      14.64657080      14.65626888
        14.66787379      14.68001014      14.69227419      14.70456299      14.71622488      14.72756244      14.73942144      14.75262570      14.76706771      14.78289196      14.80058275      14.82066361      14.84254588      14.86356593      14.88234578      14.89916859      14.91402497      14.92728121      14.93817744      14.94481071
        14.94659400      14.94933161      14.96127818      14.97255247      14.97824587      14.98103428      14.98213481      14.98097210      14.97622943      14.96733333      14.95529612      14.94206277      14.92878360      14.91366899      14.90170426      14.89644805      14.89363042      14.89454657      14.89830091      14.90438227
        14.91037165      14.91650848      14.92303802      14.92892145      14.93488241      14.94070371      14.94679196      14.95339479      14.96002141      14.96592554      14.97090375      14.97549161      14.97969214      14.98357009      14.98698778      14.99019106      14.99313668      14.99558221      14.99748063      14.99875578
        14.99953924      14.99991865      15.05527265      15.05397980      15.05211514      15.04985766      15.04614093      15.04076368      15.03345792      15.02298287      15.00760920      14.98471297      14.95395902      14.91655903      14.87548139      14.83355999      14.79610768      14.76799865      14.74836927      14.73452479
        14.72339993      14.71486929      14.70827638      14.70399598      14.69852631      14.69073829      14.68052560      14.66708312      14.65345576      14.63586914      14.61581458      14.59574854      14.58279748      14.57839067      14.57991919      14.58555658      14.59459936      14.60504537      14.61608933      14.62806550
        14.64126073      14.65419315      14.66637626      14.67919853      14.69228462      14.70499321      14.71815118      14.73237195      14.74749552      14.76399585      14.78220627      14.80259676      14.82496225      14.84663247      14.86647779      14.88418298      14.89962971      14.91356959      14.92555854      14.93465287
        14.94089558      14.94549466      14.95014940      14.95285339      14.95293763      14.95142865      14.94765028      14.94035597      14.92786825      14.91156479      14.89343878      14.87643718      14.86067384      14.84820520      14.84322665      14.84474238      14.84899810      14.85561691      14.86416616      14.87405114
        14.88342595      14.89108551      14.89839062      14.90528140      14.91260253      14.91994262      14.92775275      14.93617409      14.94427265      14.95185202      14.95865603      14.96498867      14.97110472      14.97671871      14.98146426      14.98546341      14.98889390      14.99174219      14.99390948      14.99523312
        14.99595030      14.99626117      15.06619345      15.06449026      15.06134673      15.05682393      15.04914967      15.03813004      15.02381002      15.00483901      14.97844576      14.94229997      14.89732030      14.84921923      14.80461814      14.76522569      14.73103626      14.70301394      14.67773701      14.65460988
        14.63442982      14.61936650      14.60774970      14.59643541      14.58457021      14.57308372      14.56129216      14.55079382      14.54239988      14.53279616      14.52421176      14.51869463      14.51814122      14.52372362      14.53363570      14.54625991      14.55979586      14.57336673      14.58692675      14.60073691
        14.61526349      14.62986450      14.64414733      14.65799497      14.67170248      14.68547909      14.69948889      14.71438672      14.72987021      14.74638301      14.76394580      14.78302077      14.80478677      14.82679096      14.84714722      14.86511211      14.88060061      14.89391440      14.90472378      14.91252102
        14.91795324      14.92048422      14.92062583      14.91751283      14.91130578      14.90268089      14.88969352      14.87354478      14.85395492      14.83387076      14.81551428      14.80197339      14.79416858      14.79347206      14.79791173      14.80594270      14.81579628      14.82647907      14.83775331      14.84861193
        14.85824134      14.86666804      14.87495133      14.88336212      14.89254079      14.90202102      14.91161598      14.92180606      14.93189950      14.94120710      14.94976446      14.95761503      14.96475314      14.97106216      14.97644904      14.98094225      14.98457617      14.98730717      14.98932251      14.99061184
        14.99140166      14.99183114      15.07418969      15.07118989      15.06538774      15.05675752      15.04254685      15.02372851      15.00069635      14.97109025      14.93193325      14.88330596      14.83046387      14.78010134      14.73540204      14.69320325      14.65255433      14.61681484      14.58446537      14.55612357
        14.53286574      14.51506070      14.49957736      14.48566167      14.47484965      14.46634014      14.46027597      14.45794082      14.45640579      14.45601585      14.45803559      14.46290336      14.47114762      14.48214905      14.49551634      14.51141466      14.52804968      14.54379532      14.55854183      14.57295064