# File generated by Flopy version 3.6.0 on 06/24/2024 at 10:41:11.
BEGIN griddata
  strt
    INTERNAL  FACTOR  1.0
        15.00000000      15.00000000      15.00000000      15.00000000      15.00000000      15.00000000      15.00000000      15.00000000      15.00000000      15.00000000      15.00000000      15.00000000      15.00000000      15.00000000      15.00000000      15.00000000      15.00000000      15.00000000      15.00000000      15.00000000
        15.00000000      15.00000000      15.00000000      15.00000000      15.00000000      15.00000000      15.00000000      15.00000000      15.00000000      15.00000000      15.00000000      15.00000000      15.00000000      15.00000000      15.00000000      15.00000000      15.00000000      15.00000000      15.00000000      15.00000000
        15.00000000      15.00000000      15.00000000      15.00000000      15.00000000      15.00000000      15.00000000      15.00000000      15.00000000      15.00000000      15.00000000      15.00000000      15.00000000      15.00000000      15.00000000      15.00000000      15.00000000      15.00000000      15.00000000      15.00000000
        15.00000000      15.00000000      15.00000000      15.00000000      15.00000000      15.00000000      15.00000000      15.00000000      15.00000000      15.00000000      15.00000000      15.00000000      15.00000000      15.00000000      15.00000000      15.00000000      15.00000000      15.00000000      15.00000000      15.00000000
        15.00000000      15.00000000      15.00000000      15.00000000      15.00000000      15.00000000      15.00000000      15.00000000      15.00000000      15.00000000      15.00000000      15.00000000      15.00000000      15.00000000      15.00000000      15.00000000      15.00000000      15.00000000      15.00000000      15.00000000
        15.01227976      15.01214404      15.01211557      15.01225788      15.01230963      15.01205366      15.01150250      15.01069998      15.00979296      15.00858387      15.00733630      15.00611240      15.00492969      15.00389979      15.00307963      15.00251494      15.00220307      15.00208647      15.00212933      15.00234350
        15.00267444      15.00314936      15.00370277      15.00440600      15.00514422      15.00585904      15.00667406      15.00771712      15.00894551      15.01003114      15.01085701      15.01142446      15.01204678      15.01249431      15.01277310      15.01309375      15.01385390      15.01501642      15.01619470      15.01739845
        15.01965083      15.02315623      15.02701592      15.03102649      15.03459564      15.03828033      15.04126914      15.04402543      15.04685779      15.05185216      15.05728006      15.06268959      15.06840541      15.07329044      15.07831960      15.08078529      15.08102804      15.08089966      15.07916602      15.07754365
        15.07545194      15.07233236      15.06804025      15.06315169      15.05793900      15.05301734      15.04878456      15.04614735      15.04435462      15.04295707      15.04162192      15.04142872      15.04264142      15.04629164      15.05126922      15.05802943      15.06607644      15.07457947      15.08265377      15.09255372
        15.10111436      15.10714234      15.11130284      15.11341432      15.11376275      15.11336115      15.11212569      15.11125602      15.11333218      15.11801745      15.12447200      15.13640026      15.15008592      15.16178160      15.17155581      15.18280599      15.19612774      15.20462728      15.20889975      15.21114732
        15.02287270      15.02280447      15.02285215      15.02295453      15.02258867      15.02170424      15.02026589      15.01834975      15.01624054      15.01389606      15.01163915      15.00959633      15.00767198      15.00588804      15.00439843      15.00330897      15.00262996      15.00231816      15.00235551      15.00276235
        15.00347308      15.00446694      15.00560971      15.00698591      15.00845722      15.01004882      15.01198998      15.01427658      15.01657791      15.01845849      15.01995486      15.02135171      15.02275303      15.02393577      15.02507670      15.02669763      15.02926982      15.03231584      15.03560404      15.03949584
        15.04564302      15.05450024      15.06387383      15.07288609      15.08020369      15.08683954      15.09209229      15.09830611      15.10576412      15.11534319      15.12452302      15.13220774      15.13954061      15.14477912      15.14678906      15.14544602      15.14311266      15.14022721      15.13701382      15.13334588
        15.12888814      15.12281842      15.11617246      15.10941283      15.10242262      15.09614291      15.09120051      15.08858185      15.08658708      15.08596327      15.08734292      15.09208903      15.09946244      15.10988519      15.12132390      15.13346110      15.14673890      15.16202606      15.17840320      15.19488081
        15.20709902      15.21305907      15.21614525      15.21611003      15.21601742      15.21655523      15.21694202      15.21969026      15.22658380      15.23592054      15.24783577      15.26586606      15.28589267      15.30456445      15.32435859      15.34287327      15.35895984      15.36537380      15.36529309      15.36414802
        15.03260354      15.03260170      15.03238736      15.03186889      15.03062194      15.02878128      15.02637643      15.02339699      15.02025203      15.01704822      15.01402125      15.01123922      15.00851874      15.00587045      15.00357324      15.00178441      15.00055312      14.99991846      14.99990732      15.00050148
        15.00156829      15.00307193      15.00485779      15.00701940      15.00948668      15.01227965      15.01550382      15.01900947      15.02240113      15.02522425      15.02778744      15.03041188      15.03306484      15.03597931      15.03928485      15.04333791      15.04833022      15.05389581      15.06097464      15.06987919
        15.08227197      15.09650738      15.10883857      15.11942150      15.12825262      15.13643167      15.14364617      15.15220629      15.16208897      15.17280817      15.18218968      15.18805844      15.19206521      15.19383145      15.19247068      15.18900178      15.18474522      15.17994115      15.17595189      15.17232393
        15.16814933      15.16312930      15.15739961      15.15151111      15.14528009      15.14035276      15.13678464      15.13544998      15.13634996      15.13977536      15.14670874      15.15637747      15.16700632      15.17931354      15.19252793      15.20761052      15.22501034      15.24470103      15.26560955      15.28347131
        15.29458667      15.29968614      15.30219490      15.30402241      15.30705641      15.31066699      15.31478131      15.32067092      15.32973385      15.34122059      15.35537306      15.37320807      15.39438496      15.41755445      15.44171506      15.46141403      15.47260579      15.47470327      15.47191486      15.46851190
        15.04039448      15.04004541      15.03924020      15.03798313      15.03600700      15.03340225      15.03022427      15.02655981      15.02268175      15.01870338      15.01477453      15.01081908      15.00679856      15.00286786      14.99941023      14.99656585      14.99436989      14.99310299      14.99303899      14.99394007
        14.99546716      14.99769443      15.00046943      15.00380583      15.00761783      15.01177348      15.01625080      15.02093294      15.02556256      15.02975453      15.03399181      15.03852025      15.04345686      15.04893202      15.05496484      15.06191067      15.07042835      15.08072655      15.09325579      15.10686772
        15.12232261      15.13704674      15.14803949      15.15699497      15.16537114      15.17429473      15.18362649      15.19344804      15.20332720      15.21295009      15.21998026      15.22318973      15.22448901      15.22390194      15.22186093      15.21849068      15.21443875      15.21002982      15.20607996      15.20304603
        15.20078714      15.19860427      15.19614378      15.19363058      15.19115563      15.18958325      15.18883119      15.19059727      15.19523466      15.20093055      15.20852710      15.21698621      15.22660780      15.23909338      15.25474569      15.27378988      15.29457070      15.31559917      15.33534148      15.35124444
        15.36135394      15.36753037      15.37274131      15.37890935      15.38445961      15.38936823      15.39497903      15.40240512      15.41287464      15.42482130      15.43961761      15.45764173      15.47869481      15.50012438      15.52050194      15.53488012      15.54147554      15.54325276      15.54195389      15.54037522
        15.04482378      15.04419986      15.04303945      15.04136043      15.03896226      15.03588635      15.03219295      15.02792072      15.02319160      15.01781968      15.01216870      15.00647527      15.00076626      14.99524755      14.99011884      14.98540615      14.98188015      14.98006903      14.97972085      14.98086467
        14.98359553      14.98749745      14.99206511      14.99715412      15.00271776      15.00844194      15.01429837      15.02030914      15.02645074      15.03239823      15.03861978      15.04549405      15.05302433      15.06145789      15.07077722      15.08167572      15.09465978      15.10882827      15.12403356      15.13855391
        15.15255001      15.16520761      15.17494542      15.18332250      15.19204266      15.20232122      15.21234174      15.22137362      15.22893509      15.23525196      15.23929861      15.24098315      15.24166166      15.24127075      15.24013399      15.23806518      15.23558007      15.23313436      15.23084857      15.22976483
        15.23037959      15.23221129      15.23398327      15.23569553      15.23659100      15.23739747      15.23943706      15.24301263      15.24746465      15.25184041      15.25690785      15.26420625      15.27487101      15.28968374      15.30814890      15.32855415      15.34887123      15.36797189      15.38484171      15.39941048
        15.41086197      15.41955612      15.42716482      15.43419479      15.44006100      15.44556850      15.45177843      15.45993057      15.47111741      15.48447052      15.50021190      15.51803353      15.53600968      15.55216204      15.56620651      15.57493359      15.57992791      15.58248072      15.58280016      15.58195780
        15.04667848      15.04596066      15.04458565      15.04260722      15.03984653      15.03628745      15.03177778      15.02623214      15.01963982      15.01201319      15.00438893      14.99706204      14.98950608      14.98152282      14.97386199      14.96701268      14.96176230      14.95826738      14.95685299      14.95874594
        14.96418116      14.97168621      14.97964375      14.98720605      14.99465952      15.00210630      15.00964478      15.01739092      15.02534294      15.03320310      15.04165617      15.05110039      15.06144130      15.07306769      15.08550292      15.09923349      15.11422593      15.12933215      15.14482152      15.15857481
        15.17125159      15.18317899      15.19283571      15.20154737      15.21046484      15.21992137      15.22784110      15.23410318      15.23877972      15.24287258      15.24601636      15.24778169      15.24900052      15.24972832      15.25005736      15.24994518      15.24975616      15.25003402      15.25100706      15.25320652
        15.25697905      15.26188574      15.26644748      15.26997175      15.27202349      15.27363538      15.27629691      15.27908148      15.28219674      15.28601506      15.29172293      15.30050624      15.31246559      15.32806205      15.34668267      15.36600725      15.38432929      15.40172305      15.41784231      15.43231085
        15.44383380      15.45263310      15.46001328      15.46701519      15.47401347      15.48137220      15.48884162      15.49788241      15.50963920      15.52352466      15.53815814      15.55303734      15.56651286      15.57818246      15.58802567      15.59393292      15.59778466      15.59949951      15.59961583      15.59885393
        15.04638351      15.04555017      15.04384651      15.04132758      15.03778692      15.03310612      15.02697991      15.01927712      15.01057523      15.00126164      14.99222228      14.98281761      14.97187124      14.95978478      14.94851890      14.93865219      14.92981162      14.92350706      14.92286754      14.92824366
        14.93819962      14.95020682      14.96196525      14.97256293      14.98222227      14.99181411      15.00141273      15.01109811      15.02135400      15.03163199      15.04262347      15.05481485      15.06781437      15.08176929      15.09605111      15.11092203      15.12642833      15.14172177      15.15686443      15.16981325
        15.18152727      15.19236952      15.20135443      15.20942925      15.21703278      15.22428110      15.23015197      15.23480036      15.23864315      15.24246791      15.24591242      15.24846043      15.25064706      15.25263899      15.25454947      15.25647640      15.25868422      15.26162730      15.26550346      15.27029642
        15.27594871      15.28196819      15.28730351      15.29119751      15.29396941      15.29624039      15.29862236      15.30098679      15.30446569      15.30941304      15.31660880      15.32680685      15.33980464      15.35611117      15.37419936      15.39197500      15.40885595      15.42452915      15.43871514      15.45129775
        15.46145935      15.46949414      15.47680185      15.48462946      15.49284165      15.50174780      15.51054671      15.52010248      15.53101966      15.54310868      15.55514759      15.56679827      15.57696967      15.58527128      15.59192618      15.59569716      15.59831413      15.59954417      15.59984592      15.59947496
        15.04243243      15.04119778      15.03881855      15.03539335      15.03052290      15.02398605      15.01577952      15.00632353      14.99658361      14.98581297      14.97428005      14.96076196      14.94419967      14.92631384      14.91015711      14.89645105      14.88542805      14.88000450      14.88310207      14.89341748
        14.90809802      14.92390427      14.93863899      14.95218055      14.96445221      14.97642678      14.98860977      15.00098430      15.01393729      15.02692887      15.04062990      15.05539584      15.07062215      15.08664883      15.10229152      15.11771031      15.13334610      15.14843040      15.16260874      15.17404928
        15.18391372      15.19334926      15.20153420      15.20865938      15.21500730      15.22093674      15.22620878      15.23075743      15.23467724      15.23865817      15.24262527      15.24599093      15.24907687      15.25222530      15.25556687      15.25915916      15.26312567      15.26781416      15.27338432      15.27945870
        15.28592565      15.29247126      15.29817510      15.30265069      15.30602104      15.30887958      15.31185242      15.31522744      15.31989935      15.32629822      15.33488500      15.34671181      15.36080521      15.37681813      15.39309810      15.40877892      15.42312590      15.43568446      15.44743035      15.45860708
        15.46817069      15.47622133      15.48383533      15.49195392      15.50068560      15.51007302      15.51885038      15.52746393      15.53673990      15.54677117      15.55652653      15.56536553      15.57213316      15.57729343      15.58166846      15.58451370      15.58690676      15.58824362      15.58861593      15.58822676
        15.03166335      15.02986122      15.02654119      15.02154047      15.01478033      15.00637614      14.99673633      14.98648396      14.97523974      14.96144950      14.94508107      14.92525701      14.90224521      14.88009332      14.86140848      14.84687492      14.83811864      14.83656758      14.84223818      14.85474399
        14.87268004      14.89104768      14.90832469      14.92503608      14.94112433      14.95658206      14.97183264      14.98719800      15.00303689      15.01878588      15.03499991      15.05241170      15.07011184      15.08795945      15.10444585      15.12014194      15.13548718      15.14940991      15.16186726      15.17198899
        15.18098989      15.18972641      15.19730035      15.20373280      15.20946891      15.21504609      15.22027406      15.22501838      15.22922608      15.23345288      15.23776980      15.24179967      15.24569011      15.24971572      15.25408785      15.25884757      15.26402383      15.26994205      15.27644664      15.28293138
        15.28963537      15.29656240      15.30279442      15.30789114      15.31192293      15.31564787      15.31970863      15.32439934      15.33039261      15.33806896      15.34788333      15.36034106      15.37378540      15.38775524      15.40166515      15.41491876      15.42677446      15.43761693      15.44866068      15.45947066
        15.46858550      15.47629569      15.48380526      15.49180297      15.50018357      15.50895767      15.51688607      15.52426414      15.53188419      15.53980533      15.54681543      15.55263554      15.55735464      15.56155400      15.56551097      15.56851116      15.57089845      15.57224380      15.57255588      15.57230058
        15.01058806      15.00858586      15.00460259      14.99853405      14.99036820      14.98094262      14.97083449      14.95952375      14.94555722      14.92684115      14.90429732      14.87879198      14.85129068      14.82693468      14.80874694      14.79658646      14.79068146      14.79089985      14.79720060      14.81731687
        14.82381657      14.79695317      14.80478628      14.82872334      14.85005634      14.87204125      14.89329409      14.91353723      14.93297552      14.95176636      14.97038428      14.98926362      15.00753609      15.02597610      15.04540822      15.06536951      15.08515490      15.10240710      15.11783580      15.13220588
        15.14493141      15.15641324      15.16611828      15.17500962      15.18368849      15.19104279      15.19722962      15.20278412      15.20810561      15.21323661      15.21803578      15.22255226      15.22726569      15.23219905      15.23689644      15.24157231      15.24639073      15.25152659      15.25715423      15.26319223
        15.26969434      15.27652370      15.28184044      15.28473135      15.28140094      15.28467456      15.29026047      15.29763472      15.30433931      15.30995244      15.31464637      15.31924392      15.32420981      15.32974850      15.33648886      15.34474821      15.35468260      15.36615383      15.37785768      15.38992617
        15.40215207      15.41405783      15.42509939      15.43536513      15.44582511      15.45609539      15.46484640      15.47237041      15.47953319      15.48687713      15.49449704      15.50232100      15.50921797      15.51533804      15.52114075      15.52687476      15.53218818      15.53720915      15.54202803      15.54672142
        15.55100390      15.55416422      15.55658296      15.55804107      15.55852312      15.55847608      14.97792908      14.97645619      14.97325635      14.96782973      14.95960166      14.95000165      14.93892733      14.92502305      14.90640971      14.88182337      14.85427636      14.82535094      14.79679932      14.77342762
        14.75719746      14.74661129      14.74014998      14.73925745      14.75599725      14.76200762      14.73331960      14.73609322      14.77428822      14.77841075      14.76221081      14.76741729      14.76946983      14.76166999      14.76422628      14.76524035      14.76141490      14.76221303      14.78305817      14.78627460
        14.77187544      14.77362082      14.76649901      14.76729905      14.76334846      14.76461724      14.76809170      14.77524675      14.74774342      14.75428724      14.75768885      14.75893319      14.75499721      14.75580555      14.74877020      14.75044194      14.73638676      14.73926655      14.76008286      14.76094214
        14.75710355      14.75816764      14.76084434      14.75298711      14.75523265      14.76123539      14.74442941      14.74972992      14.78833405      14.79633902      14.76449497      14.77625672      14.80604940      14.83294217      14.85844915      14.88260038      14.90537797      14.92717759      14.94845385      14.96979518
        14.99079302      15.01216306      15.03385039      15.05508530      15.07608661      15.09414930      15.10977894      15.12405951      15.13674249      15.14822334      15.15806695      15.16714827      15.17610119      15.18374287      15.19015540      15.19591608      15.20117200      15.20612609      15.21090501      15.21559931
        15.22071213      15.22636533      15.23182552      15.23709239      15.24255380      15.24840815      15.25475370      15.26126136      15.26813863      15.27403804      15.27691066      15.27321138      15.27595560      15.27995004      15.28145601      15.27943739      15.28079562      15.28150008      15.28053552      15.28119157
        15.28154315      15.28107033      15.28145509      15.28330467      15.28479847      15.28245046      15.28321716      15.28203477      15.28239940      15.28189869      15.28232481      15.28304121      15.28449727      15.27888986      15.28028501      15.28095476      15.28135817      15.28089440      15.28124941      15.28013894
        15.28086832      15.27854112      15.28006100      15.28179592      15.28221237      15.28174450      15.28211680      15.28280520      15.28183564      15.28259334      15.28402991      15.28194411      15.28352045      15.28782318      15.29094423      15.28696953      15.29029432      15.29695715      15.30429006      15.31023337
        15.31524115      15.32020269      15.32543956      15.33123505      15.33804342      15.34602843      15.35527648      15.36568477      15.37629392      15.38731523      15.39853469      15.40959826      15.42012898      15.42994163      15.43983192      15.44973128      15.45846048      15.46601484      15.47309380      15.47996022
        15.48681432      15.49376341      15.49982482      15.50485369      15.50935395      15.51423592      15.51971606      15.52522533      15.53037240      15.53507878      15.53932379      15.54268355      15.54538960      15.54713295      15.54790823      15.54812874      14.93578142      14.93476211      14.93239375      14.92776735
        14.92010911      14.90947920      14.89578204      14.87861481      14.85681885      14.82956639      14.80186655      14.77476490      14.74927754      14.72715326      14.71052353      14.69784931      14.68909971      14.68782293      14.69644874      14.71836101      14.72759991      14.70038982      14.70879141      14.73529802
        14.76234559      14.79052622      14.81770744      14.84410632      14.86929810      14.89408190      14.91918571      14.94455051      14.96826898      14.99218367      15.01686120      15.04013959      15.06208389      15.08111750      15.09796879      15.11325683      15.12641369      15.13855831      15.14915844      15.15874711
        15.16819122      15.17631914      15.18291940      15.18861643      15.19389427      15.19889809      15.20376714      15.20872321      15.21417465      15.22022711      15.22632652      15.23222701      15.23826108      15.24461432      15.25145255      15.25832372      15.26524590      15.27240094      15.27823637      15.28168828
        15.27710629      15.28014209      15.28680422      15.29472371      15.30201717      15.30798318      15.31304991      15.31809602      15.32337222      15.32920089      15.33604787      15.34381119      15.35237812      15.36196073      15.37184786      15.38220723      15.39282785      15.40328264      15.41353791      15.42327843
        15.43285319      15.44238970      15.45093796      15.45842296      15.46548979      15.47239829      15.47917477      15.48574991      15.49132348      15.49586627      15.50018205      15.50506698      15.51058236      15.51623281      15.52140372      15.52596260      15.53022915      15.53375257      15.53656351      15.53853182
        15.53951394      15.53995392      14.89042919      14.88986511      14.88759185      14.88198916      14.87265979      14.86061056      14.84641523      14.82943549      14.80867503      14.78346056      14.75785905      14.73173463      14.70508562      14.68178544      14.66430065      14.65153502      14.64468435      14.64535233
        14.65439598      14.67209034      14.69418223      14.72025779      14.74725351      14.77402518      14.80069198      14.82744620      14.85532411      14.88416489      14.91460230      14.94322344      14.97085666      14.99806352      15.02345557      15.04721633      15.06751212      15.08508009      15.10142047      15.11559278
        15.12838887      15.13982613      15.15002964      15.15987633      15.16843316      15.17518013      15.18072153      15.18576340      15.19073543      15.19574496      15.20095504      15.20674769      15.21323632      15.21982306      15.22625697      15.23276438      15.23962471      15.24681672      15.25394883      15.26097655
        15.26807485      15.27500956      15.28221574      15.28988267      15.29699969      15.30305756      15.30835571      15.31365363      15.31924993      15.32521966      15.33198739      15.33966212      15.34811602      15.35737041      15.36679837      15.37669424      15.38699660      15.39714910      15.40700865      15.41655559
        15.42592380      15.43506724      15.44339448      15.45079306      15.45767156      15.46441402      15.47115364      15.47778316      15.48343736      15.48802206      15.49235416      15.49715022      15.50250621      15.50800017      15.51317176      15.51792519      15.52238870      15.52592813      15.52862338      15.53063831
        15.53193566      15.53243310      14.84887139      14.84766810      14.84374217      14.83640490      14.82668640      14.81573787      14.80275039      14.78693170      14.76665804      14.74148198      14.71439008      14.68705551      14.66019163      14.63852413      14.62335166      14.61423859      14.61090275      14.61348397
        14.62264580      14.63890799      14.66067655      14.68603012      14.71229454      14.73839262      14.76525142      14.79265948      14.82212915      14.85371746      14.88734184      14.91931076      14.94974323      14.97951582      15.00698446      15.03245186      15.05374522      15.07200565      15.08914349      15.10423075
        15.11765140      15.12964684      15.14045418      15.15047194      15.15883149      15.16562445      15.17121305      15.17624156      15.18126842      15.18651426      15.19205360      15.19805194      15.20474088      15.21164207      15.21852443      15.22532095      15.23234362      15.23968181      15.24677299      15.25365568
        15.26069347      15.26761132      15.27472016      15.28236278      15.28983346      15.29644389      15.30237425      15.30825619      15.31433868      15.32059063      15.32739770      15.33497319      15.34326686      15.35243389      15.36182962      15.37157604      15.38165964      15.39169523      15.40137183      15.41040215
        15.41937096      15.42832434      15.43641712      15.44357231      15.45022482      15.45677208      15.46331340      15.46975738      15.47545080      15.48028415      15.48472019      15.48941008      15.49464309      15.50014785      15.50542868      15.51025440      15.51471590      15.51838069      15.52131998      15.52356265
        15.52509185      15.52570897      14.81207680      14.80939846      14.80410675      14.79741696      14.78939511      14.77944409      14.76632983      14.74987316      14.72807141      14.70090226      14.67310197      14.64632202      14.62206742      14.60387986      14.59236451      14.58599143      14.58443498      14.58815658
        14.59779448      14.61353478      14.63443696      14.65886710      14.68495037      14.71093488      14.73824893      14.76712360      14.79775924      14.83097956      14.86603913      14.89930202      14.93114550      14.96250676      14.99127913      15.01786466      15.03986523      15.05825617      15.07595430      15.09202515
        15.10619338      15.11837705      15.12910196      15.13888210      15.14703445      15.15380099      15.15970858      15.16526177      15.17095963      15.17668708      15.18240068      15.18848132      15.19507239      15.20179547      15.20865481      15.21565114      15.22259705      15.22975376      15.23665331      15.24325478
        15.25015186      15.25735434      15.26512420      15.27330809      15.28147897      15.28907547      15.29595069      15.30269721      15.30946673      15.31610565      15.32305632      15.33057253      15.33856971      15.34743691      15.35684102      15.36660247      15.37657546      15.38650503      15.39612557      15.40503953
        15.41370348      15.42239414      15.43038984      15.43744732      15.44396931      15.45019414      15.45632348      15.46251655      15.46817570      15.47316519      15.47782161      15.48260282      15.48788203      15.49348099      15.49895179      15.50398668      15.50859774      15.51242784      15.51559731      15.51805924
        15.51955736      15.52015246      14.78204591      14.77936384      14.77524071      14.76982641      14.76225420      14.75202130      14.73784763      14.71921590      14.69464472      14.66529165      14.63666643      14.61096285      14.58980036      14.57461332      14.56533648      14.56079106      14.56096009      14.56571438
        14.57539177      14.59034046      14.61030870      14.63376494      14.65935372      14.68579268      14.71332819      14.74337504      14.77532816      14.80957940      14.84618186      14.88083877      14.91401040      14.94706477      14.97673376      15.00334926      15.02564940      15.04455416      15.06250985      15.07909585