# File generated by Flopy version 3.7.0 on 06/18/2024 at 14:33:33.
BEGIN options
END options

BEGIN griddata
  strt
    INTERNAL  FACTOR  1.0
        15.00000000      15.00000000      15.00000000      15.00000000      15.00000000      15.00000000      15.00000000      15.00000000      15.00000000      15.00000000      15.00000000      15.00000000      15.00000000      15.00000000      15.00000000      15.00000000      15.00000000      15.00000000      15.00000000      15.00000000
        15.00000000      15.00000000      15.00000000      15.00000000      15.00000000      15.00000000      15.00000000      15.00000000      15.00000000      15.00000000      15.00000000      15.00000000      15.00000000      15.00000000      15.00000000      15.00000000      15.00000000      15.00000000      15.00000000      15.00000000
        15.00000000      15.00000000      15.00000000      15.00000000      15.00000000      15.00000000      15.00000000      15.00000000      15.00000000      15.00000000      15.00000000      15.00000000      15.00000000      15.00000000      15.00000000      15.00000000      15.00000000      15.00000000      15.00000000      15.00000000
        15.00000000      15.00000000      15.00000000      15.00000000      15.00000000      15.00000000      15.00000000      15.00000000      15.00000000      15.00000000      15.00000000      15.00000000      15.00000000      15.00000000      15.00000000      15.00000000      15.00000000      15.00000000      15.00000000      15.00000000
        15.00000000      15.00000000      15.00000000      15.00000000      15.00000000      15.00000000      15.00000000      15.00000000      15.00000000      15.00000000      15.00000000      15.00000000      15.00000000      15.00000000      15.00000000      15.00000000      15.00000000      15.00000000      15.00000000      15.00000000
        15.07962853      15.08323071      15.08690690      15.08959115      15.09212184      15.09536993      15.09717805      15.09676268      15.09294791      15.08881011      15.08592362      15.08239287      15.07741612      15.07194161      15.06723544      15.06240880      15.05742453      15.05255908      15.04840880      15.04543725
        15.04361223      15.04259071      15.04193601      15.04164117      15.04198580      15.04256240      15.04290426      15.04376629      15.04436375      15.04330519      15.04075586      15.03776055      15.03453970      15.03161728      15.02908411      15.02698697      15.02547386      15.02431730      15.02349740      15.02313620
        15.02344328      15.02441258      15.02590075      15.02738708      15.02907648      15.03149081      15.03393930      15.03606014      15.03802160      15.03973861      15.04068783      15.04118794      15.04052816      15.03955245      15.03872021      15.03801433      15.03756278      15.03761089      15.03840028      15.03952937
        15.04001042      15.03961459      15.03898056      15.03840178      15.03776071      15.03707212      15.03614072      15.03525971      15.03525022      15.03628971      15.03860057      15.04167121      15.04578436      15.05177226      15.05799091      15.06381009      15.06849862      15.07133121      15.07274671      15.07299299
        15.07237766      15.06993118      15.06548920      15.06059178      15.05532100      15.04984748      15.04468223      15.04047361      15.03692293      15.03364040      15.03083706      15.02773724      15.02494171      15.02263320      15.02095557      15.01971502      15.01875052      15.01776832      15.01680007      15.01631865
        15.15593892      15.15958390      15.16419829      15.16859473      15.17296779      15.17735699      15.17978456      15.17922536      15.17551667      15.17081044      15.16551925      15.15800495      15.14760360      15.13640781      15.12573357      15.11542225      15.10591521      15.09733358      15.08953903      15.08421447
        15.08149020      15.08045911      15.08080710      15.08172032      15.08335373      15.08520800      15.08687535      15.08821234      15.08779780      15.08470932      15.08000964      15.07454944      15.06881593      15.06318377      15.05839046      15.05470848      15.05196130      15.04960127      15.04803793      15.04769373
        15.04875319      15.05057912      15.05308287      15.05553772      15.05780599      15.06076773      15.06407659      15.06727164      15.07030038      15.07302757      15.07499527      15.07595653      15.07577765      15.07508576      15.07403997      15.07318559      15.07326936      15.07425130      15.07607859      15.07812358
        15.07913702      15.07857904      15.07748734      15.07645064      15.07536820      15.07406246      15.07311178      15.07278380      15.07374035      15.07640372      15.08126757      15.08776176      15.09552293      15.10433245      15.11253864      15.12013693      15.12621797      15.13092377      15.13366218      15.13453855
        15.13302290      15.12832771      15.12076531      15.11208266      15.10305548      15.09397192      15.08543578      15.07815462      15.07194678      15.06624918      15.06087509      15.05558222      15.05079426      15.04683506      15.04398589      15.04149023      15.03916742      15.03704221      15.03534842      15.03427680
        15.22195278      15.22479697      15.22919780      15.23500956      15.24023458      15.24340484      15.24521234      15.24556871      15.24394190      15.24016938      15.23371812      15.22312460      15.20881376      15.19253339      15.17610888      15.15987960      15.14515479      15.13191379      15.12013103      15.11254994
        15.10967483      15.11015016      15.11324200      15.11729038      15.12166088      15.12592939      15.12980312      15.13173777      15.13006502      15.12548205      15.11961718      15.11302692      15.10605648      15.09824886      15.09104343      15.08515621      15.08093978      15.07786418      15.07571968      15.07487262
        15.07578513      15.07742076      15.07953620      15.08168778      15.08395358      15.08674872      15.09000266      15.09348666      15.09679616      15.10001873      15.10284794      15.10463479      15.10558404      15.10585919      15.10600432      15.10654454      15.10807755      15.11036375      15.11313483      15.11540284
        15.11646261      15.11618961      15.11507849      15.11371141      15.11221335      15.11085172      15.11049847      15.11135101      15.11372667      15.11838235      15.12525189      15.13409067      15.14379205      15.15350172      15.16273955      15.17093221      15.17730790      15.18216698      15.18479707      15.18484480
        15.18194007      15.17598114      15.16728345      15.15674894      15.14592981      15.13541555      15.12549567      15.11607462      15.10734155      15.09935167      15.09205248      15.08520897      15.07872179      15.07307155      15.06880222      15.06472918      15.06079342      15.05753034      15.05514522      15.05367698
        15.27571968      15.27841821      15.28273816      15.28863300      15.29341101      15.29613355      15.29821931      15.29930464      15.29898805      15.29596996      15.28872667      15.27672303      15.26054386      15.24030221      15.21804642      15.19537216      15.17372959      15.15373306      15.13700589      15.12738724
        15.12539890      15.12934280      15.13717683      15.14643595      15.15560441      15.16386781      15.17074623      15.17368738      15.17249589      15.16865971      15.16285020      15.15568462      15.14716672      15.13743130      15.12809501      15.12002949      15.11385458      15.10935577      15.10589028      15.10401907
        15.10354076      15.10392273      15.10495149      15.10636464      15.10846010      15.11094458      15.11355512      15.11640716      15.11968016      15.12327593      15.12664968      15.12955477      15.13206817      15.13424157      15.13651468      15.13922685      15.14252714      15.14574457      15.14852158      15.15063124
        15.15167978      15.15211181      15.15184989      15.15116697      15.15031870      15.14940149      15.14938730      15.15072612      15.15435496      15.16043279      15.16807239      15.17721672      15.18716623      15.19796880      15.20799116      15.21594934      15.22181702      15.22545507      15.22693476      15.22596846
        15.22232115      15.21659166      15.20865176      15.19896181      15.18863416      15.17770430      15.16686100      15.15619348      15.14551491      15.13516005      15.12590748      15.11727813      15.10909031      15.10174479      15.09529633      15.08916359      15.08374307      15.07944937      15.07633654      15.07478052
        15.31898519      15.32195415      15.32703282      15.33238130      15.33621771      15.33889334      15.34109033      15.34237084      15.34208013      15.33898166      15.33155685      15.31940685      15.30186517      15.27844241      15.24994117      15.21878680      15.18799875      15.15930040      15.13638251      15.12459207
        15.12501563      15.13482733      15.14986146      15.16684575      15.18340017      15.19783141      15.20865705      15.21424719      15.21558260      15.21371234      15.20877331      15.20098309      15.19060403      15.17948629      15.16863040      15.15852667      15.15028600      15.14379490      15.13838024      15.13447123
        15.13181277      15.13028926      15.12987139      15.13044849      15.13188510      15.13369694      15.13552696      15.13771311      15.14085893      15.14472118      15.14854887      15.15258292      15.15666448      15.16102528      15.16556429      15.17045137      15.17520275      15.17897561      15.18170759      15.18402444
        15.18576559      15.18731056      15.18831468      15.18852580      15.18822316      15.18804550      15.18842751      15.19025385      15.19426347      15.20028530      15.20807801      15.21727284      15.22743130      15.23817713      15.24735179      15.25364453      15.25783458      15.26025665      15.26082833      15.25948227
        15.25630728      15.25176127      15.24552859      15.23839634      15.23024454      15.22019484      15.20900344      15.19757947      15.18583439      15.17384555      15.16253227      15.15217354      15.14193537      15.13265778      15.12378836      15.11581899      15.10928375      15.10412795      15.10036796      15.09835553
        15.35601169      15.35893831      15.36352728      15.36771287      15.37087835      15.37333268      15.37514503      15.37595970      15.37524831      15.37191862      15.36475479      15.35264305      15.33379227      15.30692190      15.27136359      15.22996899      15.18767858      15.14776203      15.11630327      15.10185256
        15.10629411      15.12502785      15.15083669      15.17846352      15.20451035      15.22685878      15.24333911      15.25333625      15.25778945      15.25778438      15.25375511      15.24657893      15.23652453      15.22498959      15.21268999      15.20036476      15.18959381      15.18102709      15.17334551      15.16665760
        15.16125403      15.15724788      15.15492157      15.15396872      15.15422523      15.15532311      15.15686970      15.15892491      15.16170863      15.16534176      15.16940153      15.17433995      15.17993753      15.18621356      15.19301330      15.19985924      15.20583844      15.21059855      15.21449413      15.21757261
        15.22028672      15.22286943      15.22445043      15.22498280      15.22518196      15.22553328      15.22607490      15.22838088      15.23242296      15.23846041      15.24649966      15.25574276      15.26511652      15.27363617      15.28033288      15.28438717      15.28671038      15.28776071      15.28770762      15.28648585
        15.28444633      15.28177743      15.27821344      15.27410070      15.26864958      15.26073281      15.25056406      15.23926627      15.22710942      15.21397293      15.20066567      15.18865540      15.17699604      15.16567545      15.15478686      15.14573231      15.13838536      15.13226469      15.12785729      15.12543821
        15.38918091      15.39149524      15.39437050      15.39728140      15.40008081      15.40255617      15.40390237      15.40422563      15.40299173      15.39940412      15.39200637      15.37882014      15.35771039      15.32658727      15.28339756      15.23088529      15.17548918      15.12062095      15.07684805      15.05903547
        15.06947792      15.10076417      15.14144284      15.18295135      15.22047091      15.25118888      15.27404501      15.28871943      15.29654509      15.29916665      15.29706848      15.29172512      15.28368737      15.27282198      15.26016212      15.24644916      15.23306007      15.22087476      15.20991895      15.20048265
        15.19237035      15.18561695      15.18089788      15.17788955      15.17639602      15.17635228      15.17756152      15.17973075      15.18249522      15.18587141      15.19008846      15.19585407      15.20255154      15.21006075      15.21842321      15.22683118      15.23449041      15.24106558      15.24620734      15.25002648
        15.25325755      15.25606968      15.25786750      15.25905752      15.25999181      15.26049263      15.26163881      15.26427988      15.26842740      15.27437652      15.28183896      15.28970523      15.29664046      15.30265185      15.30692958      15.30950806      15.31080219      15.31123928      15.31081506      15.31019088
        15.30975674      15.30930158      15.30877975      15.30725511      15.30404058      15.29855223      15.29043634      15.28018077      15.26767915      15.25367934      15.23920095      15.22579083      15.21338228      15.20102320      15.18933943      15.17936182      15.17115305      15.16464088      15.16001080      15.15757396
        15.42001093      15.42166289      15.42369538      15.42607831      15.42855562      15.43027970      15.43087645      15.43034109      15.42817097      15.42383909      15.41576443      15.40097176      15.37680697      15.34023255      15.28974490      15.22684660      15.15583964      15.08068366      15.01805862      14.99278806
        15.01381025      15.06485302      15.12547276      15.18405114      15.23372920      15.27246938      15.30122505      15.32000487      15.33104838      15.33665401      15.33763501      15.33440407      15.32844719      15.31938290      15.30765308      15.29328701      15.27757407      15.26139142      15.24665374      15.23473024
        15.22448030      15.21551302      15.20849708      15.20342926      15.20018568      15.19891766      15.19936716      15.20113767      15.20360741      15.20677920      15.21119474      15.21726712      15.22424469      15.23227525      15.24164664      15.25148147      15.26103871      15.26924486      15.27566224      15.28050285
        15.28388918      15.28639286      15.28816037      15.28964765      15.29074413      15.29172241      15.29355787      15.29606034      15.29976632      15.30490439      15.31081112      15.31668662      15.32171203      15.32595521      15.32873188      15.33053466      15.33169780      15.33223208      15.33248853      15.33342623
        15.33489344      15.33668679      15.33819358      15.33810853      15.33630361      15.33266313      15.32655821      15.31757407      15.30527374      15.29097768      15.27646600      15.26267187      15.25003940      15.23811711      15.22686028      15.21664803      15.20821094      15.20200222      15.19761960      15.19526213
        15.45065178      15.45181448      15.45340256      15.45546314      15.45722046      15.45792479      15.45771600      15.45594593      15.45252953      15.44700676      15.43781045      15.42136963      15.39431152      15.35326556      15.29589870      15.22276425      15.13446595      15.03061443      14.92928915      14.88310900
        14.92876386      15.01857125      15.10909645      15.18693236      15.24820524      15.29376778      15.32601328      15.34706969      15.36010311      15.36795365      15.37162331      15.37121592      15.36742236      15.36036374      15.34989624      15.33593422      15.31961239      15.30203382      15.28484781      15.27047599
        15.25805361      15.24720238      15.23835933      15.23144235      15.22706808      15.22500927      15.22443780      15.22519490      15.22677298      15.22973716      15.23407167      15.23989234      15.24682479      15.25519438      15.26553709      15.27647517      15.28681946      15.29587343      15.30356731      15.30939923
        15.31238363      15.31421463      15.31537042      15.31646089      15.31754194      15.31892498      15.32066389      15.32287461      15.32612674      15.33036597      15.33485344      15.33929241      15.34315773      15.34603370      15.34808296      15.34955798      15.35084803      15.35198842      15.35379025      15.35647493
        15.35983978      15.36330105      15.36594934      15.36704604      15.36646998      15.36396541      15.35892595      15.35069748      15.33928181      15.32567536      15.31186252      15.29855754      15.28675134      15.27647630      15.26666855      15.25812373      15.25113091      15.24564959      15.24154584      15.23958236
        15.48415682      15.48427524      15.48471484      15.48558407      15.48601848      15.48582132      15.48466573      15.48192618      15.47732337      15.47035061      15.45973218      15.44198865      15.41295104      15.36874931      15.30668318      15.22589337      15.12089938      14.97831676      14.79252662      14.73161849
        14.73527228      14.58945670      14.59940558      14.80156304      14.97379707      15.10266945      15.19771925      15.26648293      15.31503714      15.34841963      15.37033608      15.38432433      15.39349249      15.39888834      15.40059088      15.39871847      15.39393282      15.38563893      15.37358187      15.35934179
        15.34364353      15.32697228      15.31075554      15.29581864      15.28201376      15.27113460      15.26311847      15.25795056      15.25524113      15.25371557      15.25309857      15.25395583      15.25682923      15.26135027      15.26712226      15.27391731      15.28232839      15.29244939      15.30276848      15.31244920
        15.32124612      15.32895785      15.32863692      15.33038328      15.33770904      15.33947570      15.33685856      15.33797156      15.33873861      15.33971400      15.34082919      15.34191739      15.34343477      15.34589851      15.34918137      15.35299362      15.35675472      15.36013665      15.36284777      15.36480480
        15.36641089      15.36783702      15.36939011      15.37164842      15.37498744      15.37925743      15.38412086      15.38870034      15.39251642      15.39478620      15.39511424      15.39311973      15.38834138      15.38074013      15.37089954      15.35916334      15.34651069      15.33473324      15.32471992      15.31642100
        15.30891664      15.30314705      15.29831901      15.29415013      15.29076495      15.28883653      15.52191415      15.52042156      15.51909579      15.51786110      15.51622842      15.51443261      15.51211881      15.50864258      15.50301640      15.49465589      15.48262556      15.46371961      15.43419135      15.38984090
        15.32762685      15.24510740      15.13302908      14.97084615      14.77253424      14.61218459      14.79421031      14.64378195      14.43401301      14.31969130      14.32851042      14.14104481      14.01651485      14.02140631      13.79832629      13.64994298      13.65251646      13.08902406      14.34604178      14.46800143
        14.07965019      14.21468030      13.81807628      13.96685607      13.66303991      13.92082826      14.14622762      14.38842566      14.36823903      14.09157329      13.82424978      13.66622973      13.97577193      13.92740655      14.23260990      14.15978197      14.50359669      14.41764136      13.82421441      13.98229847
        13.98527763      14.06600520      14.18605614      14.19257060      14.28511877      14.42086920      14.43664413      14.53395049      14.64327306      14.79426532      14.67749223      14.81901422      14.98066099      15.12489008      15.22175212      15.28952684      15.33687059      15.36914604      15.39075818      15.40536074
        15.41539612      15.42157994      15.42425933      15.42397927      15.42162920      15.41646761      15.40781347      15.39673849      15.38412602      15.36985783      15.35398863      15.33752632      15.32179180      15.30889712      15.30006965      15.29412070      15.29009107      15.28761243      15.28615486      15.28694284
        15.28996194      15.29429055      15.29967986      15.30570616      15.31324733      15.32183228      15.33025634      15.33827040      15.34503959      15.34518506      15.34652010      15.35349126      15.35586809      15.34613138      15.34668980      15.35034591      15.35027980      15.35056967      15.35229194      15.35226550
        15.35239825      15.35323718      15.35350408      15.34761745      15.34858570      15.35102524      15.35139671      15.35261634      15.35281239      15.35368668      15.35377741      15.35339760      15.35268853      15.35544872      15.35487574      15.35453702      15.35464586      15.35548601      15.35568496      15.35681911
        15.35721695      15.35952486      15.36043353      15.35482815      15.35506369      15.35588980      15.35600218      15.35594153      15.35762130      15.35784401      15.35764167      15.36116271      15.36143983      15.35173565      15.35309214      15.36035433      15.36052421      15.35792934      15.35915652      15.36026442
        15.36128152      15.36241147      15.36425099      15.36704449      15.37030347      15.37370946      15.37684569      15.37932284      15.38120798      15.38290541      15.38429739      15.38589276      15.38815874      15.39149876      15.39598017      15.40161906      15.40758140      15.41327264      15.41791501      15.42084234
        15.42180884      15.42013034      15.41585211      15.40950206      15.40170618      15.39260103      15.38250617      15.37285648      15.36447633      15.35812841      15.35314041      15.34911531      15.34555217      15.34251165      15.33999897      15.33843948      15.56116405      15.55868400      15.55568408      15.55223764
        15.54832665      15.54441206      15.54048033      15.53588157      15.52914304      15.51979727      15.50683972      15.48723353      15.45835299      15.41680105      15.35899685      15.28371447      15.18579599      15.05348350      14.88433212      14.68974548      14.70176438      14.85413584      14.86016187      14.90404920
        15.06395596      15.17841867      15.25939539      15.31767986      15.35940713      15.38866466      15.40940215      15.42399264      15.43400902      15.44016464      15.44358663      15.44511427      15.44500494      15.44291395      15.43812079      15.43088426      15.42115982      15.40909044      15.39539162      15.38014405
        15.36465392      15.35153547      15.34179075      15.33471788      15.32950368      15.32598119      15.32468081      15.32536118      15.32750271      15.33022039      15.33414267      15.33859050      15.34447349      15.35100720      15.35710711      15.36240177      15.36648356      15.36942848      15.36752899      15.36870333
        15.37465896      15.37545435      15.37363943      15.37542708      15.37688510      15.37817200      15.37943481      15.38110204      15.38339483      15.38636592      15.38947684      15.39239921      15.39482203      15.39682257      15.39861014      15.40039996      15.40201334      15.40410423      15.40713344      15.41129967
        15.41686753      15.42362089      15.43057835      15.43697160      15.44194012      15.44508622      15.44628008      15.44524694      15.44218893      15.43760925      15.43211804      15.42540104      15.41826685      15.41115402      15.40491736      15.40031783      15.39641972      15.39248019      15.38919734      15.38687803
        15.38535842      15.38505921      15.59677374      15.59436540      15.59057849      15.58562266      15.58002818      15.57465627      15.56913514      15.56297630      15.55492576      15.54466228      15.53152046      15.51217611      15.48466655      15.44716659      15.39745378      15.33508086      15.25894910      15.16923753
        15.08333583      15.04649278      15.09063343      15.16985765      15.24400872      15.30252352      15.34759052      15.38188980      15.40754525      15.42648611      15.43989872      15.44902587      15.45502423      15.45928036      15.46245819      15.46434172      15.46470541      15.46287191      15.45891324      15.45213154
        15.44240760      15.43151675      15.41943582      15.40581102      15.39355503      15.38330231      15.37545404      15.36954460      15.36507854      15.36305378      15.36255548      15.36276147      15.36322337      15.36503745      15.36730156      15.37077255      15.37467587      15.37816029      15.38122253      15.38374187
        15.38566764      15.38703226      15.38848754      15.38998950      15.39144654      15.39306356      15.39492375      15.39713767      15.39989550      15.40301717      15.40610488      15.40881727      15.41113622      15.41330430      15.41537850      15.41747537      15.41957974      15.42221481      15.42610473      15.43150616
        15.43868531      15.44650909      15.45369186      15.45977343      15.46442545      15.46742965      15.46880214      15.46876071      15.46717951      15.46468421      15.46162225      15.45753221      15.45291999      15.44814215      15.44379320      15.43972178      15.43539476      15.43097479      15.42781675      15.42630095
        15.42600509      15.42659999      15.62659521      15.62444498      15.62048825      15.61538801      15.60970931      15.60384303      15.59746001      15.58984566      15.58064057      15.56963906      15.55638030      15.53803286      15.51298609      15.47997016      15.43843360      15.38917535      15.33227524      15.27090771
        15.21909038      15.19789979      15.21504581      15.25717692      15.30299372      15.34288056      15.37660350      15.40407637      15.42573066      15.44205326      15.45366584      15.46184335      15.46776226      15.47264134      15.47683380      15.47999721      15.48183123      15.48195767      15.48004722      15.47599591
        15.46931938      15.46134286      15.45188688      15.44049850      15.42917511      15.41901614      15.41063481      15.40376591      15.39774446      15.39355073      15.39085555      15.38877575      15.38735554      15.38732462      15.38760449      15.38886223      15.39025348      15.39166188      15.39335397      15.39506026
        15.39669040      15.39799687      15.39928992      15.40077166      15.40255180      15.40463548      15.40706062      15.40988095      15.41307907      15.41648269      15.41974316      15.42279948      15.42571624      15.42841092      15.43081203      15.43345546      15.43621096      15.43970018      15.44495185      15.45191432
        15.46026477      15.46826522      15.47496907      15.48034168      15.48440639      15.48737628      15.48931702      15.49039355      15.49049116      15.48991919      15.48887057      15.48724259      15.48507135      15.48223123      15.47875848      15.47467874      15.47015549      15.46575214      15.46273140      15.46188336
        15.46236511      15.46304277      15.65162643      15.64968995      15.64620549      15.64184993      15.63666555      15.63075390      15.62376397      15.61527786      15.60518820      15.59345781      15.57990102      15.56245627      15.53971105      15.51125644      15.47712166      15.43864373      15.39616897      15.35168941
        15.31561273      15.29826505      15.30279884      15.32439833      15.35173970      15.37885677      15.40409989      15.42579229      15.44333405      15.45658928      15.46624232      15.47344105      15.47904029      15.48416363      15.48880059      15.49246203      15.49510500      15.49627986      15.49556351      15.49324590
        15.48877379      15.48262268      15.47465349      15.46434715      15.45319490      15.44312692      15.43409273      15.42599239      15.41869398      15.41277515      15.40807351      15.40409082      15.40131535      15.39979094      15.39859500      15.39843379      15.39854656      15.39906233      15.40006714      15.40138719
        15.40286835      15.40434091      15.40597988      15.40793085      15.41017878      15.41285215      15.41590517      15.41925552      15.42286612      15.42680844      15.43066402      15.43444557      15.43812252      15.44144722      15.44442421      15.44773712      15.45137040      15.45611380      15.46259582      15.47053411
        15.47877594      15.48609831      15.49227656      15.49727431      15.50123628      15.50429224      15.50681471      15.50893832      15.51074957      15.51216215      15.51303889      15.51338294      15.51279622      15.51123019      15.50851028      15.50525001      15.50155882      15.49813185      15.49577428      15.49534307
        15.49598961      15.49662233      15.67415741      15.67226640      15.66919849      15.66527348      15.66004464      15.65399436      15.64654934      15.63780165      15.62749068      15.61538947      15.60139264      15.58446307      15.56375300      15.53879652      15.51050127      15.47987226      15.44743106      15.41427290
        15.38706408      15.37191466      15.37031750      15.37895841      15.39437468      15.41256023      15.43066700      15.44664697      15.45979469      15.47001470      15.47774124      15.48375894      15.48884443      15.49375271      15.49814104      15.50158934      15.50419064      15.50536479      15.50457578      15.50247550