# File generated by Flopy version 3.7.0 on 06/05/2024 at 14:48:00.
BEGIN options
END options

BEGIN griddata
  icelltype
    CONSTANT  0
  k
    INTERNAL  FACTOR  1.0
    2.63453903E-04  2.66722053E-04  1.44775003E-04  5.00144736E-05  5.63877068E-06  4.19889478E-06  5.19553906E-06  1.30021520E-05  1.35616164E-05  4.63975578E-05  9.60407497E-05  1.22142346E-04  2.16621988E-04  1.51749110E-04  1.45813738E-04  8.51802716E-05  4.44976135E-04       0.00241409       0.00240633       0.00394614
         0.00745394       0.00601352       0.00334758       0.00371638       0.00141873  8.14327686E-04       0.00124662       0.00239535       0.00401328       0.00298104       0.00107299  1.80596139E-04  9.49860615E-05  1.28229403E-04  2.58496363E-04  2.12226080E-04  5.30986477E-05  3.07176511E-05  1.69124820E-05  1.15470168E-05
    1.21495533E-05  3.28311776E-05  2.04278722E-04       0.00127968       0.00213271       0.00125810  2.59535383E-04  9.08808639E-05  1.35152318E-04  2.60103234E-04  6.23796334E-04  7.37198022E-04       0.00140471  4.25558070E-04  9.61929890E-05  5.15158145E-05  6.01113170E-05  6.70242355E-05  6.81127266E-05  7.09193757E-05
    1.01632579E-04  1.68641797E-04  1.54147692E-04  5.16630502E-05  2.09426318E-05  4.12465129E-05  7.97006977E-05  2.08465497E-04  4.84167542E-04  6.15937221E-04  9.39787833E-04  6.11254254E-04  4.36455872E-04  2.02210589E-04  8.83382656E-05  8.07625875E-05  3.19789164E-05  4.69397897E-05  1.86893366E-04  5.86668206E-04
    8.85854854E-04       0.00238566       0.00303995       0.00147211  7.03257700E-04  3.73840405E-04  1.66071135E-04  1.21981340E-04  2.07463233E-05  2.67735023E-05  6.65533396E-05  1.00977404E-04  1.08199793E-04  8.67295206E-05  1.48127723E-04  2.86779225E-04  7.09006948E-05  4.52889141E-05  2.84176481E-05  1.14281375E-05
    1.70245284E-04  1.66366302E-04  1.09408909E-04  7.16665946E-05  1.22911753E-05  5.19269718E-06  3.81034815E-06  8.11451203E-06  1.22777233E-05  2.19558466E-05  4.56398629E-05  5.99010021E-05  1.95988376E-04  2.54666606E-04  1.98238884E-04  1.04121803E-04  3.15463670E-04       0.00167804       0.00191679       0.00188192
         0.00341512       0.00693432       0.00308077       0.00375398       0.00417288       0.00112183       0.00102629       0.00180704       0.00327232       0.00273595       0.00233342  2.96117745E-04  1.48357823E-04  1.96031060E-04  2.49668301E-04  4.02675270E-04  8.80934374E-05  4.50718118E-05  2.55513593E-05  1.23047574E-05
    1.20242330E-05  2.39100746E-05  9.52106034E-05  7.73992677E-04       0.00195181       0.00191274  7.65404240E-04  1.55646434E-04  1.36259571E-04  3.49743109E-04  7.19750285E-04  9.11586908E-04       0.00162395  7.11333842E-04  1.80346417E-04  8.70873632E-05  4.99075689E-05  7.18974113E-05  4.35471841E-05  8.21063558E-05
    1.00261159E-04  9.90766819E-05  1.76157466E-04  9.54291732E-05  2.69558275E-05  2.91362879E-05  4.22705891E-05  8.78437399E-05  4.03229636E-04  7.39884489E-04  8.82780982E-04  8.61969571E-04  5.50799153E-04  1.98919799E-04  8.34952047E-05  6.35620631E-05  4.70243884E-05  3.10524474E-05  1.15072834E-04  4.18936279E-04
    6.50565558E-04       0.00127197       0.00358239       0.00185224       0.00112497  4.94016235E-04  1.70239267E-04  1.34054182E-04  2.97271914E-05  1.94031021E-05  3.66555166E-05  6.73877455E-05  1.05833457E-04  1.30993096E-04  1.28648028E-04  1.76532107E-04  1.00281799E-04  3.38282249E-05  4.72624400E-05  1.73605736E-05
    1.39840158E-04  1.43596711E-04  1.41536499E-04  8.79174998E-05  5.06634802E-05  1.02783310E-05  8.61958804E-06  9.60022265E-06  1.58090559E-05  1.40966304E-05  3.38975347E-05  4.61254446E-05  9.99575667E-05  3.10401192E-04  3.73986285E-04  1.98605445E-04  2.29789127E-04  8.55692783E-04       0.00120916  6.35809632E-04
         0.00127001       0.00328927       0.00253373       0.00294641       0.00436622       0.00180435       0.00104517  9.23032404E-04       0.00169024       0.00365394       0.00277613  6.66982659E-04  1.71847750E-04  3.60651435E-04  2.90780426E-04  4.69363505E-04  2.46082932E-04  9.59357764E-05  3.82567291E-05  2.04374650E-05
    1.47021042E-05  2.03417828E-05  6.94845069E-05  3.33229501E-04       0.00173511       0.00227358       0.00189933  2.64660814E-04  1.40673708E-04  2.97956957E-04  8.11958081E-04       0.00104199       0.00203491       0.00116168  2.62188280E-04  1.61082174E-04  6.63155095E-05  7.81906076E-05  4.73957126E-05  7.23716473E-05
    1.22967232E-04  8.27607435E-05  1.67683372E-04  1.98021301E-04  8.62846757E-05  2.85475511E-05  4.73543167E-05  3.81798155E-05  2.44865974E-04  9.55518643E-04  7.71903304E-04       0.00163628  6.47686350E-04  2.51558327E-04  1.07984177E-04  3.62562786E-05  4.44891961E-05  2.81925822E-05  5.21304273E-05  1.43089744E-04
    4.49333392E-04  7.31157769E-04       0.00244071       0.00241436       0.00200511       0.00107992  5.39923742E-04  1.66736462E-04  9.32522278E-05  3.60366224E-05  3.70305060E-05  6.27695445E-05  1.08749942E-04  1.88163004E-04  1.44993834E-04  1.56942621E-04  1.18969306E-04  4.25927571E-05  4.19120299E-05  2.42754977E-05
    9.06365290E-05  1.64223241E-04  1.46019363E-04  1.33722048E-04  1.06930151E-04  2.71713241E-05  1.59259929E-05  1.49605242E-05  1.68733126E-05  1.65984635E-05  2.46464771E-05  5.31249531E-05  9.13756407E-05  3.07177249E-04  6.75657066E-04  5.55146162E-04  2.81097997E-04  4.95921055E-04       0.00101407  5.82452412E-04
    6.47517935E-04       0.00130678       0.00209354       0.00143317       0.00231888       0.00222966  9.07966623E-04  7.74929360E-04       0.00131572       0.00333470       0.00288789       0.00145856  2.22462742E-04  3.46664452E-04  2.74897710E-04  4.11545492E-04  3.00515927E-04  1.86272809E-04  4.98153840E-05  2.96701592E-05
    1.06722083E-05  1.48123385E-05  5.61636327E-05  1.48534794E-04       0.00113663       0.00194380       0.00205572  4.67689060E-04  2.79687690E-04  3.86923715E-04  7.45220637E-04       0.00179371       0.00197553       0.00128661  3.79132754E-04  1.91985949E-04  1.50521539E-04  6.84586991E-05  4.91756649E-05  8.46907016E-05
    1.18075927E-04  9.00922019E-05  1.16908340E-04  2.37866929E-04  2.06878679E-04  5.01207465E-05  5.94693367E-05  3.10928559E-05  7.95409635E-05  4.71534495E-04  9.43576818E-04       0.00140473  8.27297340E-04  3.09663182E-04  1.52963210E-04  4.11852697E-05  2.32154822E-05  3.31838710E-05  3.17719123E-05  6.95368922E-05
    2.77004619E-04  6.03577036E-04       0.00108724       0.00182481       0.00190944       0.00190516       0.00141399  2.84073316E-04  1.56207980E-04  4.08705493E-05  3.15471087E-05  4.68420778E-05  9.68245495E-05  1.52449717E-04  2.07309982E-04  1.61721512E-04  1.63545151E-04  9.06464941E-05  5.26366297E-05  3.60319508E-05
    5.41566748E-05  7.73477674E-05  1.24127286E-04  1.66271925E-04  1.52628297E-04  6.46026894E-05  3.00927342E-05  2.27766506E-05  2.45096145E-05  2.09859517E-05  1.41998396E-05  5.76831009E-05  6.98192169E-05  2.18723033E-04  8.70308530E-04  9.07608701E-04  4.23891756E-04  3.57963059E-04  6.84866128E-04  7.73211953E-04
    5.91280429E-04  5.95820815E-04       0.00140529       0.00126152       0.00131041       0.00168659       0.00135629       0.00106712       0.00124056       0.00182221       0.00357564       0.00302831  5.01896884E-04  3.36568096E-04  3.97451988E-04  4.09091514E-04  4.32928424E-04  3.64888399E-04  9.39864026E-05  3.55415054E-05
    1.53398152E-05  2.05517746E-05  3.90073588E-05  1.37669987E-04  5.72339964E-04       0.00135702       0.00193713  7.19004415E-04  4.00528005E-04  6.78039675E-04  5.37441402E-04       0.00230442       0.00184789       0.00142298  4.16929679E-04  2.25261845E-04  1.79121762E-04  6.40797456E-05  3.87033147E-05  5.63103298E-05
    9.75942404E-05  6.51935756E-05  7.32066530E-05  1.39349109E-04  2.80011064E-04  1.30200304E-04  4.22798823E-05  4.10007698E-05  3.45986918E-05  2.25945952E-04       0.00127082  9.68318488E-04  9.55102626E-04  4.07278876E-04  2.38652731E-04  9.82095207E-05  2.35454757E-05  2.45223256E-05  3.45008843E-05  8.10413262E-05
    1.49980229E-04  5.78063105E-04  5.33997977E-04       0.00113313       0.00173458       0.00234768       0.00376336  9.04031215E-04  2.33674501E-04  1.11415866E-04  5.98915693E-05  7.74505502E-05  1.18745107E-04  1.76240131E-04  2.61753289E-04  2.03026350E-04  1.41744152E-04  1.10046163E-04  8.72404183E-05  7.51832808E-05
    4.59909683E-05  3.25367228E-05  9.10690841E-05  1.79848767E-04  1.42598451E-04  1.75226828E-04  5.72667378E-05  3.12062954E-05  3.02272997E-05  1.99490788E-05  1.54278468E-05  3.58013924E-05  1.24680180E-04  3.16406563E-04  6.16822063E-04  8.62241340E-04  8.57683810E-04  5.09291943E-04  4.87547990E-04  7.68828227E-04
    5.61059501E-04  5.30702321E-04  8.05479433E-04       0.00162934  9.80001368E-04  7.61926478E-04       0.00135116       0.00121425       0.00108576       0.00162138       0.00205387       0.00304159       0.00156553  5.86728890E-04  5.78852221E-04  3.83249737E-04  5.18878502E-04  2.69032319E-04  1.19194499E-04  3.98353377E-05
    1.48570372E-05  2.12955998E-05  3.65617106E-05  1.08190481E-04  2.89657882E-04  7.34563087E-04       0.00174245  7.19933719E-04  4.80053292E-04  5.88101919E-04  5.86809358E-04       0.00148938       0.00224223       0.00226704  5.37562083E-04  2.56505479E-04  1.79883880E-04  1.15136122E-04  3.85179943E-05  4.41981600E-05
    1.04450598E-04  7.69586101E-05  7.64558239E-05  1.43111267E-04  2.63317074E-04  2.65915793E-04  5.99435529E-05  5.09426510E-05  1.98849900E-05  1.19850240E-04  5.68629149E-04  6.57302372E-04       0.00115942  5.99314764E-04  2.62351271E-04  1.46077578E-04  2.91662483E-05  1.75168354E-05  2.73466082E-05  7.38606535E-05
    1.14915938E-04  3.27929176E-04  3.63113106E-04  7.47522077E-04       0.00138367       0.00184549       0.00359705       0.00189317  4.60844577E-04  1.68138108E-04  8.78385682E-05  7.17609865E-05  1.05657635E-04  2.28300181E-04  2.48589956E-04  2.40341962E-04  1.33919267E-04  1.37794033E-04  1.15190584E-04  1.37454553E-04
    5.78629197E-05  3.37644522E-05  5.11135022E-05  1.80079481E-04  2.24177042E-04  3.22336018E-04  1.33862141E-04  8.13229909E-05  4.02894783E-05  2.65017090E-05  1.99303303E-05  1.83549670E-05  1.05634023E-04  3.94767351E-04  5.14484251E-04  9.43072297E-04       0.00125820       0.00103919  7.37674337E-04       0.00109545
    5.34453755E-04  3.87180432E-04  4.82049073E-04       0.00107415       0.00122799  3.48595081E-04  6.96221947E-04  8.84166260E-04  9.32640899E-04       0.00106855       0.00124177       0.00169568       0.00255632       0.00137902  7.17535491E-04  4.14525184E-04  4.50370838E-04  1.83518182E-04  1.43756065E-04  6.14599179E-05
    2.16421394E-05  2.05287371E-05  7.22846719E-05  7.92193150E-05  2.05327007E-04  6.86671067E-04       0.00127555       0.00128976  5.28743530E-04  6.96372544E-04  6.63175039E-04  9.29970862E-04       0.00210090       0.00257846       0.00109288  2.97756393E-04  1.29095522E-04  1.13557122E-04  3.33665443E-05  2.16139080E-05
    5.09067275E-05  5.56636068E-05  3.77822268E-05  8.30071473E-05  1.73014377E-04  3.01872847E-04  1.38200689E-04  6.04956237E-05  2.06950163E-05  9.30951534E-05  3.37748014E-04  6.36558290E-04  9.76758333E-04       0.00141532  5.38304047E-04  3.12647649E-04  6.18662453E-05  1.84344405E-05  2.09788929E-05  5.53019677E-05
    1.74947031E-04  3.00078263E-04  2.15493765E-04  3.52266041E-04  6.23207301E-04       0.00134860       0.00233900       0.00244103  8.62713651E-04  4.13385861E-04  1.14395890E-04  8.93002450E-05  9.71902218E-05  2.10186675E-04  2.71590702E-04  2.32580716E-04  2.11488626E-04  1.70379459E-04  1.36517533E-04  1.79229457E-04
    3.49761217E-05  3.97960278E-05  1.79816542E-05  7.54110965E-05  2.12241308E-04  2.94676193E-04  3.57352005E-04  1.54555683E-04  6.42894951E-05  4.35313028E-05  2.71193766E-05  1.71272700E-05  6.89931072E-05  3.14418448E-04  4.72414294E-04  7.57217432E-04       0.00116628       0.00139431       0.00109820  7.96059587E-04
    5.16027200E-04  3.14450439E-04  2.94160575E-04  5.92155451E-04       0.00125442  4.61586403E-04  3.59705446E-04  5.81240028E-04  9.71567176E-04       0.00107287       0.00102765       0.00125288       0.00221738       0.00287702  9.08800192E-04  7.16475366E-04  7.30185879E-04  2.33666817E-04  1.90753554E-04  7.30047635E-05
    5.25871048E-05  2.08424078E-05  8.54343524E-05  1.24759584E-04  1.63284103E-04  4.28529034E-04  8.71789249E-04       0.00168527  7.00134415E-04  5.93317042E-04  8.35074123E-04       0.00111912       0.00144630       0.00214020       0.00148754  4.60254625E-04  1.31358671E-04  1.21375379E-04  5.62608118E-05  1.13341844E-05
    2.09355579E-05  3.60361924E-05  2.78597084E-05  5.61555189E-05  1.18713219E-04  2.62116290E-04  1.65799012E-04  7.98022134E-05  3.79755969E-05  4.95514399E-05  2.47473203E-04  3.22269233E-04  6.47811234E-04       0.00153700  9.07101613E-04  3.56893584E-04  6.57037356E-05  2.96470810E-05  2.04352531E-05  5.58432193E-05
    1.70814021E-04  3.14158216E-04  1.86742823E-04  2.06341052E-04  4.62816528E-04  8.38862010E-04       0.00168876       0.00229286       0.00113775       0.00103945  1.77228802E-04  1.04058853E-04  1.19437218E-04  1.46059443E-04  2.80138154E-04  3.54630983E-04  2.85617985E-04  2.48731755E-04  2.02039284E-04  1.11689353E-04
    4.85727551E-05  5.41929881E-05  3.11877303E-05  5.38140608E-05  2.19605218E-04  3.60217382E-04  5.83835085E-04  3.26167764E-04  1.48173307E-04  4.78420154E-05  3.66810882E-05  2.26029949E-05  4.30322584E-05  2.91600319E-04  6.39759893E-04  9.50286884E-04       0.00134902       0.00167965       0.00108219  8.56234125E-04
    5.54421099E-04  2.95778721E-04  1.55197146E-04  2.45685618E-04  5.18558707E-04  6.75434952E-04  2.71453076E-04  2.97311947E-04  5.02687259E-04       0.00114298       0.00100893       0.00104077       0.00132546       0.00272881       0.00136562  7.49926075E-04  8.41532769E-04  2.90640704E-04  1.89479738E-04  6.77608338E-05
    6.47754336E-05  2.95013819E-05  4.91860053E-05  1.41350673E-04  1.32964801E-04  2.68620498E-04  7.61820860E-04       0.00152587  6.69379186E-04  4.05630997E-04  7.02824574E-04       0.00121335       0.00148327  8.00136903E-04       0.00129593  7.49216943E-04  2.26443488E-04  1.65390869E-04  9.11694934E-05  1.80060464E-05
    1.50483221E-05  3.79063312E-05  3.12457476E-05  3.82289980E-05  9.88502771E-05  2.49402903E-04  1.78296823E-04  1.02318474E-04  5.36444919E-05  5.42258497E-05  1.67585318E-04  2.80258409E-04  5.05591981E-04       0.00156364       0.00122224  4.11203745E-04  9.36474245E-05  3.10384904E-05  2.53250173E-05  4.39272890E-05
    1.10103677E-04  3.01917748E-04  1.85435318E-04  1.13718369E-04  3.04749318E-04  5.43754362E-04       0.00104888       0.00166145       0.00149408       0.00131033  3.44086136E-04  1.56968526E-04  1.84038867E-04  1.56486941E-04  2.21579182E-04  5.31953147E-04  3.13741136E-04  4.04112983E-04  2.15539138E-04  1.49153171E-04
    1.10013278E-04  5.13881026E-05  4.64068166E-05  2.82575208E-05  1.56655261E-04  5.42570202E-04  5.77777641E-04  6.41212368E-04  3.05143839E-04  1.52511098E-04  5.47143251E-05  2.09648817E-05  3.66715045E-05  1.60590732E-04  6.90069419E-04       0.00148073       0.00171220       0.00185185  8.89695171E-04  6.24489333E-04
    7.15726225E-04  4.96442185E-04  2.01831325E-04  1.33413795E-04  2.48673166E-04  4.75982222E-04  3.14366945E-04  1.46242321E-04  4.80273276E-04  7.39205165E-04  6.68496919E-04  8.62207089E-04  9.67551533E-04       0.00156578       0.00180602  9.22468948E-04       0.00123037  4.50622268E-04  3.09365965E-04  1.07631077E-04
    5.69875903E-05  4.15139409E-05  4.11505321E-05  8.53477766E-05  1.49059936E-04  1.71390167E-04  4.37049750E-04       0.00141973  9.05713558E-04  3.98285244E-04  4.92657041E-04       0.00125164       0.00164554  6.38804611E-04  7.47908906E-04  7.93247144E-04  3.49727814E-04  1.67139311E-04  1.02503862E-04  2.94575906E-05
    1.24355761E-05  3.79935289E-05  3.06006285E-05  2.88108587E-05  5.83527687E-05  1.73495008E-04  2.47147063E-04  8.87470409E-05  7.88058820E-05  8.14790762E-05  1.42677583E-04  2.60755530E-04  3.55057212E-04  8.41548349E-04       0.00125381  6.55227326E-04  1.28028265E-04  3.10705288E-05  3.06674619E-05  2.79256895E-05
    7.21623897E-05  1.88585919E-04  1.65284905E-04  6.82685183E-05  1.29183567E-04  2.54435694E-04  5.24608511E-04  6.08334119E-04  8.76199218E-04       0.00124297  4.39631624E-04  2.12888964E-04  1.55936127E-04  1.43144877E-04  1.35153358E-04  3.82192917E-04  2.96369410E-04  3.15497023E-04  1.86102881E-04  1.84428322E-04
    1.70708520E-04  5.82829141E-05  4.16920795E-05  3.16741062E-05  8.23637530E-05  3.89215217E-04  6.78203131E-04       0.00123420  4.67839776E-04  2.18958242E-04  6.60011863E-05  2.37847520E-05  3.03950161E-05  9.49941619E-05  5.23708459E-04       0.00190454       0.00164562       0.00127342  6.96708311E-04  4.04469604E-04
    4.04469604E-04  4.04469604E-04  4.04469604E-04  5.51713294E-04  7.76726884E-04  2.86329381E-04  9.58600005E-05  8.99130899E-05  1.87308780E-04  3.73113886E-04  1.38985764E-04  1.97218825E-04  6.41774529E-04  6.68675746E-04  5.50717154E-04  5.15697041E-04  8.33716663E-04       0.00132203       0.00112413       0.00123771
    8.05708571E-04  4.81577350E-04  2.30184161E-04  6.29538980E-05  4.75302121E-05  3.32655394E-05  4.67359514E-05  8.07916586E-05  1.06414408E-04  2.45723277E-04       0.00129938       0.00105764  4.01088982E-04  3.93690643E-04       0.00141854       0.00166722       0.00122702  5.04578225E-04  7.01443148E-04  6.17226773E-04
    2.99380599E-04  1.59944193E-04  7.65608827E-05  7.65608827E-05  7.65608827E-05  7.65608827E-05  2.01481549E-05  3.82558869E-05  4.74331316E-05  4.34338184E-05  4.21188561E-05  1.28686456E-04  3.18583519E-04  1.24830174E-04  8.70767565E-05  1.67156063E-04  2.08128142E-04  2.84329049E-04  2.36636125E-04  4.93201618E-04
    9.75812096E-04  7.94656643E-04  1.79567477E-04  4.81460850E-05  6.03875206E-05  3.73829214E-05  4.98777941E-05  1.19933826E-04  1.22464202E-04  1.20280271E-04  8.41655812E-05  1.87955486E-04  4.64090546E-04  4.54955088E-04  5.64897426E-04       0.00116911       0.00105148  2.89746709E-04  1.62305173E-04  1.26823370E-04
    1.00480701E-04  2.12805551E-04  2.86124891E-04  2.91870542E-04  1.95215373E-04  1.25303146E-04  2.42080242E-04  9.54509940E-05  3.63492051E-05  4.16146470E-05  4.30048045E-05  1.76154485E-04  5.46020771E-04       0.00126345       0.00129912  2.24881939E-04  7.46522018E-05  3.26798124E-05  2.73585873E-05  8.30723558E-05
    4.22750895E-04       0.00198829       0.00187771       0.00150849  7.25169539E-04  7.25169539E-04  7.25169539E-04  7.25169539E-04  5.35368206E-04  5.35368206E-04  5.35368206E-04  5.35368206E-04  5.35368206E-04  5.35368206E-04  5.35368206E-04  5.35368206E-04  5.35368206E-04  5.35368206E-04  5.35368206E-04  5.35368206E-04
    5.35368206E-04  5.35368206E-04  5.35368206E-04  5.35368206E-04  5.35368206E-04  5.35368206E-04  5.35368206E-04  5.35368206E-04  5.35368206E-04  5.35368206E-04  5.35368206E-04  5.35368206E-04  5.35368206E-04  5.35368206E-04  5.35368206E-04  5.35368206E-04  5.35368206E-04  5.35368206E-04  5.35368206E-04  5.35368206E-04
    5.35368206E-04  5.35368206E-04  5.35368206E-04  5.35368206E-04  5.35368206E-04  5.35368206E-04  5.35368206E-04  5.35368206E-04  6.36040629E-04  6.36040629E-04  6.36040629E-04  6.36040629E-04  9.23743789E-04  5.42722194E-04  1.41428065E-04  8.78853511E-05  1.34359064E-04  2.78197420E-04  2.33703016E-04  1.38331114E-04
    4.89581554E-04  6.05603007E-04  4.91353347E-04  2.24312025E-04  3.17758950E-04  5.73473977E-04  8.46971545E-04  9.65465476E-04  9.92128252E-04  4.29908978E-04  3.31286400E-04  8.63557050E-05  4.37346655E-05  4.98501875E-05  4.11046563E-05  5.73536642E-05  9.89543128E-05  1.77035691E-04       0.00104923       0.00137495
    4.99347566E-04  3.92450236E-04       0.00109336       0.00178446       0.00109859  3.84328806E-04  4.08731378E-04  6.55698171E-04  4.19249681E-04  1.60944612E-04  1.60944612E-04  1.60944612E-04  1.60944612E-04  1.10863465E-04  1.10863465E-04  1.10863465E-04  1.10863465E-04  1.10863465E-04  1.10863465E-04  1.10863465E-04
    1.10863465E-04  1.10863465E-04  1.10863465E-04  1.10863465E-04  1.10863465E-04  1.10863465E-04  1.10863465E-04  1.10863465E-04  1.10863465E-04  1.10863465E-04  1.10863465E-04  1.10863465E-04  1.10863465E-04  1.10863465E-04  1.10863465E-04  1.10863465E-04  1.10863465E-04  1.10863465E-04  1.10863465E-04  1.10863465E-04
    1.10863465E-04  1.10863465E-04  1.10863465E-04  1.10863465E-04  1.10863465E-04  1.10863465E-04  1.10863465E-04  1.10863465E-04  1.10863465E-04  1.10863465E-04  1.10863465E-04  1.10863465E-04  1.10863465E-04  3.84564520E-05  3.84564520E-05  3.84564520E-05  3.84564520E-05  3.21736065E-05  6.66312196E-05  5.74429042E-05
    2.83588209E-05  8.75263665E-05  2.24195990E-04  2.60130596E-04  7.71551261E-05  1.74710129E-04  3.39268798E-04  3.16616434E-04  2.24855987E-04  4.21403363E-04  7.70019424E-04  8.42605213E-04  2.72318967E-04  7.84876307E-05  7.24290816E-05  6.50409589E-05  5.30296282E-05  8.04040589E-05  9.45990886E-05  1.76504866E-04
    7.16331906E-05  1.59185282E-04  3.76177883E-04  4.36425916E-04  2.85530191E-04  6.98907976E-04       0.00162448  4.03618235E-04  1.79613582E-04  8.74020789E-05  1.06253343E-04  9.04699227E-05  1.49194375E-04  1.88608927E-04  1.70376496E-04  8.69311033E-05  3.89349520E-04  1.95025611E-04  5.39349218E-05  6.87683589E-05
    3.88547692E-05  8.13505467E-05  3.86290658E-04  6.25376702E-04       0.00168764  3.76810039E-04  9.66767481E-05  4.03694954E-05  3.48505896E-05  5.71630413E-05  3.12021394E-04       0.00130668       0.00159027  9.09074738E-04  4.52103990E-04  3.80281541E-04  3.80281541E-04  3.80281541E-04  3.80281541E-04  4.15613694E-04
    6.83384912E-04  9.16002289E-04  2.01273282E-04  1.01119759E-04  1.27846629E-04  2.31025780E-04  2.88379550E-04  1.89692105E-04  2.75827073E-04  8.48025290E-04  5.50603659E-04  2.53589502E-04  1.72791715E-04  5.33744988E-04  7.58867449E-04       0.00126943       0.00108617  6.35674651E-04  3.22576405E-04  9.53879979E-05
    3.31097576E-05  4.80552207E-05  4.07336498E-05  5.84632227E-05  4.47971411E-05  1.26278029E-04  3.72147967E-04  8.82651137E-04  5.04777544E-04  4.40433552E-04  5.21353144E-04       0.00115986  8.83122082E-04  4.03053812E-04  2.16142323E-04  3.53838588E-04  6.12192664E-04  1.75999680E-04  1.15931941E-04  1.15931941E-04
    1.15931941E-04  1.15931941E-04  7.73937068E-05  4.32183812E-05  8.41959353E-05  1.00739592E-04  4.98397259E-05  6.72417235E-05  2.14644424E-04  3.55566291E-04  1.10779765E-04  1.46936793E-04  3.73362946E-04  3.54368261E-04  3.37561794E-04  3.57420260E-04  8.30636563E-04  8.71745762E-04  3.29395442E-04  1.32705096E-04
    8.19335934E-05  1.05509633E-04  6.47101682E-05  8.18987783E-05  7.70261885E-05  1.96451523E-04  1.29365017E-04  1.45416397E-04  3.18819515E-04  5.13376858E-04  4.03694365E-04  6.18135061E-04       0.00239902  7.82166108E-04  3.60349585E-04  1.02058705E-04  9.73985109E-05  1.17903387E-04  1.16753881E-04  1.30018793E-04
    2.04924414E-04  1.22535908E-04  5.89118674E-04  4.55316320E-04  1.19875985E-04  5.49805819E-05  5.91079780E-05  4.52679475E-05  1.41037335E-04  4.01708177E-04       0.00105059       0.00107427  9.27356311E-05  4.28180900E-05  5.34139277E-05  6.95927373E-05  2.30373903E-04       0.00109219       0.00173691  8.84823362E-04
    4.83319516E-04  3.63130951E-04  5.08454559E-04  9.63887301E-04       0.00125373  3.38289767E-04  1.63041885E-04  1.45533537E-04  2.57316235E-04  2.85310660E-04  2.00672771E-04  1.39873484E-04  5.20284549E-04  5.02277508E-04  3.35705285E-04  1.58047558E-04  4.10647190E-04  9.42923177E-04       0.00121635       0.00107070
         0.00100269  3.84046992E-04  1.65347278E-04  4.14008467E-05  6.10295066E-05  6.16347988E-05  6.31488268E-05  5.70343564E-05  9.23144619E-05  3.50776799E-04  9.31534814E-04  8.98203825E-04  7.24969035E-04  5.02607558E-04  8.16737655E-04  8.80818937E-04  4.63250279E-04  1.52558364E-04  2.24317658E-04  6.27297833E-04
    3.02377488E-04  1.05000940E-04  1.13496474E-04  5.74932412E-05  5.90400645E-05  1.23253330E-04  5.36236331E-05  4.48175880E-05  8.88194109E-05  2.56180393E-04  1.38989131E-04  1.16334497E-04  3.10128500E-04  3.78847220E-04  3.72795632E-04  3.29898012E-04  7.00283429E-04  8.11728820E-04  3.41832441E-04  2.20489928E-04
    8.80086795E-05  9.40416814E-05  8.90847783E-05  6.09299463E-05  9.10532731E-05  1.91815747E-04  2.20754426E-04  1.67289073E-04  3.75346135E-04  6.00225110E-04  3.86183376E-04  3.87472021E-04       0.00146633       0.00137893  4.35347111E-04  9.67575254E-05  5.71472195E-05  7.63728840E-05  1.03959799E-04  8.09067170E-05
    1.22678678E-04  1.41624034E-04  5.30014825E-04  8.18374145E-04  2.91773965E-04  5.50835212E-05  7.20433918E-05  3.22314770E-05  5.03232835E-05  2.28474843E-04  6.63317921E-04       0.00101605  1.73046619E-04  5.52439460E-05  6.29929241E-05  1.01257510E-04  1.43703006E-04  7.64323483E-04       0.00154855  9.40861526E-04
    5.46132375E-04  3.68476793E-04  3.84626018E-04  6.74720077E-04       0.00133081  7.72923007E-04  1.88023082E-04  2.10482667E-04  1.96781906E-04  1.99263213E-04  1.31205888E-04  1.11612873E-04  1.82011737E-04  5.43594092E-04  3.62013789E-04  2.80722973E-04  4.36856773E-04  9.39709439E-04       0.00167762       0.00126467
    6.86156023E-04  3.76525605E-04  1.51548550E-04  5.28061754E-05  3.65276634E-05  7.57016101E-05  6.45328686E-05  7.40898767E-05  5.84076339E-05  2.65677430E-04  8.72264492E-04  8.70927527E-04  9.14812101E-04  8.72349585E-04  6.42681224E-04  8.09014071E-04  3.93492159E-04  1.39896369E-04  1.29374973E-04  3.73853299E-04
    4.67404875E-04  1.58272430E-04  1.44825076E-04  7.88196937E-05  5.16579673E-05  1.20016644E-04  6.57615741E-05  3.70606794E-05  6.77175807E-05  1.52588275E-04  1.91291177E-04  1.09242341E-04  3.34741340E-04  5.78777295E-04  4.65429851E-04  5.42472633E-04  4.91052533E-04  6.84134551E-04  5.29802271E-04  1.71099230E-04
    1.07432536E-04  8.99623664E-05  1.07361473E-04  6.36796770E-05  8.30276565E-05  1.77685250E-04  2.58742445E-04  2.30609586E-04  3.11513366E-04  6.70178699E-04  6.30375948E-04  3.15534746E-04  8.99031019E-04       0.00108767  7.73515268E-04  1.47068132E-04  2.91744286E-05  6.05576067E-05  7.83397311E-05  6.85599964E-05
    7.36432191E-05  1.29090264E-04  4.53794215E-04       0.00157982  9.10100656E-04  1.08490378E-04  1.07007776E-04  3.17248582E-05  2.87244437E-05  1.68234208E-04  6.20958551E-04       0.00105928  4.15474922E-04  1.06567289E-04  6.56426872E-05  1.67112205E-04  1.63289867E-04  5.15045977E-04       0.00127764       0.00106548
    7.06403714E-04  5.92769098E-04  3.81871211E-04  4.36756628E-04       0.00100296       0.00125669  2.38513733E-04  3.59444909E-04  2.39003254E-04  2.16893737E-04  1.47115579E-04  1.01754411E-04  8.20250182E-05  3.13006119E-04  3.39239488E-04  2.84955011E-04  5.05799712E-04  6.37642155E-04       0.00230626       0.00171231
    3.61672195E-04  3.09323866E-04  1.31352135E-04  4.20444008E-05  3.91866540E-05  7.11831383E-05  7.40408760E-05  7.24172321E-05  7.44357736E-05  1.86058743E-04  8.62414831E-04  9.66011615E-04  9.12839207E-04       0.00113733  5.47309551E-04  5.40821033E-04  3.03948183E-04  1.58720966E-04  7.55201091E-05  2.13789100E-04
    3.87238273E-04  2.64761510E-04  1.67621410E-04  1.16684862E-04  4.35881810E-05  5.21893126E-05  5.35901191E-05  2.68369792E-05  4.24755288E-05  8.46221984E-05  1.62649958E-04  1.04313246E-04  1.61397436E-04  6.88561837E-04  4.76280617E-04  6.71414150E-04  4.89481961E-04  6.48275197E-04  8.55605214E-04  2.17448393E-04
    1.60487463E-04  7.87380920E-05  7.94216379E-05  6.38790922E-05  6.66496472E-05  1.70861646E-04  2.18044134E-04  3.00803695E-04  2.80540038E-04  8.36894359E-04  8.35747596E-04  4.52008668E-04  5.97768571E-04  7.61786103E-04  7.99706738E-04  3.04560780E-04  3.17905861E-05  2.43716664E-05  4.43577147E-05  7.24507226E-05
    6.00453333E-05  8.67967244E-05  3.49407745E-04       0.00160627       0.00194303  3.44301035E-04  1.03989548E-04  5.61613521E-05  2.05011525E-05  8.29042987E-05  6.09023616E-04  8.83067846E-04  4.30484076E-04  2.35435003E-04  7.61925967E-05  1.68580315E-04  1.93249543E-04  2.61324448E-04  7.26866920E-04  6.61271530E-04
    8.99891446E-04  7.27281384E-04  4.73998608E-04  2.25930433E-04  6.12033507E-04       0.00104130  4.65027642E-04  2.72455188E-04  3.01106667E-04  2.83595550E-04  2.16990888E-04  8.13137846E-05  5.80143167E-05  1.53218328E-04  2.18313307E-04  2.72127476E-04  5.12451555E-04  8.72179045E-04       0.00213886       0.00334130
    5.12048679E-04  1.95669126E-04  2.07649986E-04  6.45352720E-05  5.04020462E-05  7.21097788E-05  9.40753274E-05  1.19459518E-04  8.93616337E-05  1.85072100E-04  7.72086980E-04       0.00150784       0.00126785       0.00113352  6.73860785E-04  5.74622855E-04  3.35412464E-04  1.12028194E-04  7.13978260E-05  9.33141925E-05
    3.05973019E-04  2.97357699E-04  2.49856275E-04  1.81704666E-04  4.97243468E-05  3.78659239E-05  3.92931475E-05  1.64355813E-05  3.16112216E-05  5.70722381E-05  1.28097297E-04  1.06317277E-04  1.07687123E-04  2.96174484E-04  4.94329461E-04  6.60190123E-04  6.97736753E-04  5.10353374E-04       0.00112372  3.71119954E-04
    1.47650934E-04  1.00896998E-04  1.18056783E-04  8.20477614E-05  7.46556600E-05  1.45332806E-04  2.30663298E-04  2.12611060E-04  2.11107262E-04  6.33813027E-04       0.00113929  6.68287214E-04  4.47149833E-04  5.18393053E-04  7.72473650E-04  4.64386902E-04  7.14464300E-05  1.71646531E-05  3.17884277E-05  8.33379909E-05
    6.24017738E-05  5.47075882E-05  4.16324980E-04       0.00109472       0.00287593  8.73563537E-04  1.98094340E-04  7.66299210E-05  2.38931398E-05  3.14544318E-05  3.05360258E-04  8.05646050E-04  4.44464738E-04  2.87636014E-04  2.12155257E-04  2.02266278E-04  3.56020296E-04  2.60408936E-04  3.68622971E-04  4.28841091E-04