# File generated by Flopy version 3.6.0 on 12/12/2024 at 09:27:17.
BEGIN options
  PRINT_OPTION  summary
  COMPLEXITY  complex
END options

BEGIN linear
  LINEAR_ACCELERATION  bicgstab
END linear

