# File generated by Flopy version 3.6.0 on 09/19/2024 at 10:04:53.
BEGIN options
END options

BEGIN griddata
  icelltype
    CONSTANT  0
  k
    INTERNAL  FACTOR  1.0
         0.00106737       0.00126853       0.00180362       0.00259461       0.00303578       0.00344947       0.00349900       0.00315923       0.00218184       0.00125154  9.28423742E-04  6.95497607E-04  4.79358404E-04  3.67624034E-04  2.79161083E-04  1.84662816E-04  1.35830365E-04  1.04764528E-04  8.69686610E-05  7.93974098E-05
    7.76912313E-05  6.99457719E-05  8.47212415E-05  1.02318652E-04  1.41923346E-04  1.93667391E-04  2.45880731E-04  2.28649117E-04  2.42075256E-04  2.29288623E-04  1.85304475E-04  1.39477439E-04  9.97726022E-05  6.55078140E-05  4.52196374E-05  2.95076186E-05  1.72515096E-05  1.30393937E-05  1.08979335E-05  1.10296800E-05
    1.33986874E-05  1.82434284E-05  2.67235784E-05  3.64146107E-05  4.13835890E-05  5.42262984E-05  6.96642965E-05  7.84258188E-05  1.01605748E-04  1.15996182E-04  1.23305437E-04  1.43423631E-04  1.44098946E-04  1.19878102E-04  8.64376237E-05  6.98344586E-05  6.45021404E-05  5.26541017E-05  4.83936332E-05  4.81776908E-05
    4.39628145E-05  5.19011335E-05  7.40859519E-05  1.00500056E-04  1.19334427E-04  1.47269347E-04  1.87368740E-04  2.24798196E-04  1.90894913E-04  1.62863080E-04  1.32400233E-04  1.13201825E-04  9.15967712E-05  8.32826570E-05  7.00089063E-05  6.94665461E-05  6.63267819E-05  6.35730301E-05  6.29369105E-05  4.60025742E-05
    4.51167955E-05  5.26773068E-05  5.93931324E-05  5.17407930E-05  4.41958535E-05  4.34342589E-05  5.28664308E-05  6.47530999E-05  7.49682385E-05  7.91877362E-05  8.91110169E-05  8.62101320E-05  7.27035269E-05  5.90175688E-05  5.15830623E-05  3.60051137E-05  2.93407810E-05  2.92670771E-05  3.33860749E-05  4.18972086E-05
    9.50587015E-04       0.00106295       0.00144934       0.00233421       0.00285552       0.00337386       0.00378105       0.00383498       0.00295446       0.00168158       0.00109996  8.18973071E-04  5.71028456E-04  3.73130184E-04  2.78860363E-04  1.83657047E-04  1.27812558E-04  9.50637680E-05  7.92353340E-05  6.65097009E-05
    6.41040511E-05  6.71514411E-05  7.77053795E-05  1.00055918E-04  1.37369497E-04  1.74046793E-04  2.22329390E-04  2.43948415E-04  2.72870357E-04  2.84955972E-04  2.21882383E-04  1.69208073E-04  1.17953756E-04  7.36418630E-05  4.93371301E-05  3.46330689E-05  1.98248410E-05  1.41317501E-05  1.13987428E-05  1.03977348E-05
    1.18384829E-05  1.58430766E-05  2.42840204E-05  3.64131173E-05  4.36824462E-05  5.00383473E-05  6.92778644E-05  7.97989504E-05  9.66394040E-05  1.23545557E-04  1.34317314E-04  1.50717181E-04  1.56170197E-04  1.41367253E-04  1.05673851E-04  7.90962607E-05  7.05499840E-05  5.86287282E-05  5.02991849E-05  5.06570444E-05
    4.86661039E-05  5.10982642E-05  7.55233010E-05  9.84152070E-05  1.32650610E-04  1.64263616E-04  2.23092666E-04  2.65952311E-04  2.39004267E-04  1.89283256E-04  1.51311804E-04  1.43869746E-04  1.31543994E-04  1.08472631E-04  8.72722126E-05  8.76823965E-05  8.26427989E-05  7.48230425E-05  6.57664053E-05  5.40410779E-05
    4.41681731E-05  4.76064045E-05  5.87168951E-05  5.50174666E-05  4.95954810E-05  4.31475045E-05  5.23090603E-05  6.32663979E-05  7.06648724E-05  7.71615475E-05  8.29338404E-05  8.18156799E-05  7.01453052E-05  5.99259629E-05  5.23822142E-05  3.64435260E-05  2.88499101E-05  2.77940611E-05  2.96254007E-05  3.54961435E-05
    9.36539104E-04  9.87015205E-04       0.00128293       0.00195574       0.00278802       0.00361573       0.00407495       0.00463105       0.00344855       0.00214085       0.00128888  8.94736716E-04  6.45875027E-04  4.02080506E-04  2.77019177E-04  2.00731703E-04  1.27321279E-04  8.73743027E-05  6.89700148E-05  5.66429386E-05
    5.24234410E-05  5.87275651E-05  6.81566021E-05  8.95783526E-05  1.31800400E-04  1.53367044E-04  2.05247313E-04  2.48032600E-04  2.74587220E-04  3.25944460E-04  2.73246754E-04  1.99259204E-04  1.31207935E-04  8.38822783E-05  5.42647875E-05  3.71738764E-05  2.20649487E-05  1.44072939E-05  1.15844001E-05  1.02739406E-05
    1.06217863E-05  1.36713354E-05  2.01930447E-05  3.14217901E-05  4.27542872E-05  5.05928611E-05  6.46384183E-05  7.92839545E-05  9.42044762E-05  1.26721503E-04  1.43690986E-04  1.53841096E-04  1.74609742E-04  1.61045621E-04  1.29979428E-04  9.22946976E-05  7.70317803E-05  6.64862077E-05  5.44297985E-05  5.15318647E-05
    5.26672864E-05  5.55278433E-05  7.43539645E-05  9.51936752E-05  1.28115957E-04  1.73392248E-04  2.37601405E-04  3.01989170E-04  3.06044802E-04  2.41831674E-04  1.73087657E-04  1.63205924E-04  1.71364631E-04  1.44908222E-04  1.17436976E-04  1.09051529E-04  1.06767091E-04  9.08201300E-05  7.76115225E-05  6.07603728E-05
    4.93609729E-05  4.51476225E-05  5.47840895E-05  5.72898597E-05  4.99389544E-05  4.67392046E-05  5.14669852E-05  6.18188986E-05  6.68732886E-05  7.13175375E-05  8.44463681E-05  7.99481660E-05  6.94488002E-05  5.70082046E-05  4.90643092E-05  3.79316004E-05  2.72461264E-05  2.44366287E-05  2.74612111E-05  3.10255452E-05
    9.11708247E-04  9.84054215E-04       0.00119768       0.00172692       0.00260473       0.00335541       0.00408658       0.00480680       0.00420482       0.00248420       0.00143187  9.91980673E-04  6.82028703E-04  4.31003965E-04  2.84465703E-04  1.88786046E-04  1.26277373E-04  8.41079333E-05  6.23948823E-05  5.07684061E-05
    4.81421097E-05  5.20082405E-05  6.18718452E-05  7.28456347E-05  1.13127140E-04  1.36813013E-04  1.80199354E-04  2.40180038E-04  2.70223221E-04  3.18762653E-04  3.19153636E-04  2.35744906E-04  1.46554181E-04  9.65002544E-05  6.31076056E-05  3.93862804E-05  2.52916381E-05  1.53553648E-05  1.26232928E-05  1.04209526E-05
    1.00283541E-05  1.24978493E-05  1.63299346E-05  2.51024659E-05  3.93375404E-05  5.02391952E-05  6.00640369E-05  6.86020756E-05  9.44148999E-05  1.20743620E-04  1.43926569E-04  1.55809326E-04  1.79425474E-04  1.79060826E-04  1.51156836E-04  1.12869867E-04  8.94967800E-05  7.18714876E-05  5.83530566E-05  5.07118747E-05
    5.14984863E-05  5.78346200E-05  6.91109532E-05  9.02056348E-05  1.21439781E-04  1.70724422E-04  2.38153257E-04  3.09340149E-04  3.63414052E-04  3.17287340E-04  2.14892784E-04  1.83509934E-04  2.07984182E-04  1.78371322E-04  1.51741628E-04  1.29303177E-04  1.22779252E-04  1.07325280E-04  8.81399324E-05  7.03429830E-05
    5.82668156E-05  4.69966489E-05  4.99754004E-05  5.68364951E-05  5.25890418E-05  5.24940594E-05  5.43294793E-05  6.32752582E-05  6.56267841E-05  6.61613999E-05  7.89172741E-05  8.44671409E-05  7.29638781E-05  5.99416611E-05  4.97240935E-05  4.24219355E-05  2.83304303E-05  2.34995617E-05  2.64184185E-05  3.05602590E-05
    8.86617169E-04       0.00102626       0.00123267       0.00160797       0.00242442       0.00305998       0.00379880       0.00449139       0.00466609       0.00289297       0.00168709       0.00110934  7.67202972E-04  4.93700901E-04  3.28979636E-04  2.01051391E-04  1.31970105E-04  9.36714851E-05  6.59641153E-05  5.08863955E-05
    4.80178001E-05  5.12639935E-05  5.44013554E-05  6.74442678E-05  9.17962550E-05  1.18371108E-04  1.51852770E-04  2.09811085E-04  2.64618747E-04  2.98999246E-04  3.20989010E-04  2.67947909E-04  1.91467107E-04  1.23444695E-04  7.86936929E-05  4.87070318E-05  3.05441096E-05  1.81923579E-05  1.39778639E-05  1.12259076E-05
    1.04330687E-05  1.12380456E-05  1.49221407E-05  2.15409712E-05  3.58295381E-05  5.03875703E-05  5.97755917E-05  6.41019205E-05  8.89243840E-05  1.25907113E-04  1.54142436E-04  1.57007505E-04  1.79641634E-04  1.88026878E-04  1.70025201E-04  1.41396245E-04  1.10980121E-04  8.35331973E-05  6.58475898E-05  5.54268743E-05
    5.43458728E-05  6.14461930E-05  7.28767421E-05  8.80044094E-05  1.14709821E-04  1.63271235E-04  2.39647070E-04  3.06678309E-04  3.92659255E-04  3.86116942E-04  2.95179032E-04  2.38366755E-04  2.23051865E-04  2.19569229E-04  1.90900981E-04  1.72234484E-04  1.40266949E-04  1.30109603E-04  1.06062893E-04  8.71655807E-05
    7.06959569E-05  5.46737520E-05  4.84624915E-05  5.47037420E-05  5.56788034E-05  5.90139299E-05  6.29990506E-05  6.94168141E-05  6.85888495E-05  6.40732002E-05  7.38321543E-05  9.00590110E-05  7.88852915E-05  6.40853144E-05  5.31171718E-05  4.40678092E-05  3.15460860E-05  2.30864150E-05  2.47695038E-05  2.93923149E-05
    8.25957096E-04       0.00102622       0.00121310       0.00160073       0.00238464       0.00298849       0.00342497       0.00434052       0.00457906       0.00323620       0.00198191       0.00128419  8.83232925E-04  5.51708073E-04  3.76127444E-04  2.30660807E-04  1.40588268E-04  1.01332563E-04  7.60338164E-05  5.57363205E-05
    4.77021342E-05  4.82913024E-05  5.09497974E-05  6.21602010E-05  7.97966456E-05  1.02360312E-04  1.28444433E-04  1.73320308E-04  2.37424172E-04  2.63820908E-04  2.97068617E-04  2.70978240E-04  2.24638231E-04  1.55496723E-04  9.93945665E-05  6.16484519E-05  3.82773733E-05  2.33347449E-05  1.60227106E-05  1.22009763E-05
    1.04749670E-05  1.03258595E-05  1.26559166E-05  1.90304777E-05  3.08443971E-05  4.47443575E-05  5.76777064E-05  6.44129937E-05  8.01276533E-05  1.15672447E-04  1.53658983E-04  1.55117957E-04  1.77159723E-04  1.85632703E-04  1.78071283E-04  1.58717515E-04  1.32518377E-04  1.02092789E-04  7.45293869E-05  5.95527254E-05
    5.54836888E-05  6.38662968E-05  7.30437997E-05  8.86866308E-05  1.07641032E-04  1.50091550E-04  2.15636771E-04  3.10419784E-04  3.82544475E-04  4.28017401E-04  3.76860149E-04  3.10862171E-04  2.65119601E-04  2.46722156E-04  2.38543246E-04  2.12053956E-04  1.67092408E-04  1.48256817E-04  1.33102622E-04  1.01628520E-04
    8.38899261E-05  6.34801865E-05  5.56499407E-05  5.55550481E-05  5.56169176E-05  6.21708818E-05  6.95260225E-05  7.30633373E-05  7.38164795E-05  6.31854273E-05  6.75007208E-05  8.25008977E-05  8.19531822E-05  6.87689418E-05  5.72676298E-05  4.49850000E-05  3.29255835E-05  2.41844658E-05  2.50101661E-05  2.86677464E-05
    8.63829914E-04       0.00103691       0.00115352       0.00162767       0.00217764       0.00291869       0.00323024       0.00423431       0.00478292       0.00381255       0.00233494       0.00155341       0.00101812  6.00349275E-04  3.94848206E-04  2.58503749E-04  1.60628407E-04  1.14330223E-04  8.81200883E-05  6.68835424E-05
    5.53274579E-05  4.80797657E-05  5.16862870E-05  6.09093077E-05  7.15185249E-05  9.22513292E-05  1.13279371E-04  1.50874482E-04  2.03604749E-04  2.38497806E-04  2.40090106E-04  2.54756728E-04  2.23974293E-04  1.81385818E-04  1.27194064E-04  7.82315711E-05  5.29006315E-05  3.22735761E-05  2.04498875E-05  1.35825658E-05
    9.90809849E-06  9.85270039E-06  1.14572843E-05  1.78672615E-05  2.78698593E-05  4.15227772E-05  5.53098154E-05  6.72690071E-05  7.90680298E-05  1.05145311E-04  1.33534471E-04  1.52362260E-04  1.77021310E-04  1.84087036E-04  1.63409277E-04  1.64259245E-04  1.46418755E-04  1.18862252E-04  8.72766362E-05  6.97229641E-05
    5.92430952E-05  6.57650089E-05  7.18940431E-05  9.20710676E-05  1.10060070E-04  1.54948180E-04  2.08171179E-04  2.82481435E-04  3.62272418E-04  4.34608975E-04  4.54920777E-04  3.99581929E-04  3.43741563E-04  2.92958663E-04  2.82249212E-04  2.64202283E-04  2.05540153E-04  1.71628929E-04  1.51108420E-04  1.24745885E-04
    1.00931732E-04  8.08757768E-05  6.33310790E-05  6.22607719E-05  6.12003445E-05  6.94022441E-05  8.16324448E-05  8.10838430E-05  7.97316724E-05  6.73980318E-05  6.17648775E-05  7.39003911E-05  8.43727179E-05  7.20729912E-05  6.04423859E-05  4.50053079E-05  3.35418338E-05  2.56979219E-05  2.59525355E-05  2.91903653E-05
    9.07478665E-04       0.00112141       0.00118189       0.00162497       0.00224179       0.00274060       0.00323711       0.00427564       0.00507955       0.00434839       0.00290949       0.00205622       0.00124853  7.17433353E-04  4.58090714E-04  3.06776111E-04  1.95407861E-04  1.36156061E-04  1.05197010E-04  7.98027374E-05
    6.65572582E-05  5.48112870E-05  5.60581107E-05  6.02025959E-05  7.02610286E-05  8.60638094E-05  1.04280459E-04  1.40431656E-04  1.70802439E-04  2.07679000E-04  2.09664493E-04  2.30422152E-04  2.09820697E-04  1.85999035E-04  1.45518644E-04  9.77392002E-05  6.86528850E-05  4.63450667E-05  2.64245769E-05  1.68627739E-05
    1.12469486E-05  9.56511935E-06  1.06768297E-05  1.51449962E-05  2.56222198E-05  3.88396089E-05  5.20165127E-05  6.66215108E-05  7.79648840E-05  9.53058768E-05  1.14348760E-04  1.33903125E-04  1.55441917E-04  1.63068586E-04  1.41539822E-04  1.41463715E-04  1.39290497E-04  1.15028933E-04  9.33826851E-05  7.72210056E-05
    6.35279336E-05  6.21990660E-05  6.77122318E-05  8.37780820E-05  1.15469515E-04  1.48543911E-04  2.02908214E-04  2.44985435E-04  3.27506977E-04  4.06921905E-04  4.85983630E-04  4.73841296E-04  4.37642606E-04  3.61369200E-04  3.09566534E-04  2.98005285E-04  2.38226755E-04  1.90722108E-04  1.66764997E-04  1.36962134E-04
    1.15523217E-04  9.33555245E-05  7.56774253E-05  6.29953101E-05  6.61065564E-05  7.51616610E-05  8.99305428E-05  9.37646897E-05  8.77851892E-05  7.30576477E-05  6.33816845E-05  6.83838199E-05  7.56658030E-05  7.34731589E-05  6.25597572E-05  4.53011556E-05  3.17671920E-05  2.69593161E-05  2.47165243E-05  2.91782228E-05
    9.03418302E-04       0.00102219       0.00116936       0.00147223       0.00201337       0.00247676       0.00291654       0.00396381       0.00492634       0.00453007       0.00323629       0.00250857       0.00154005  8.41640726E-04  5.49027009E-04  3.49907855E-04  2.36948787E-04  1.61818926E-04  1.19672392E-04  9.17163927E-05
    7.25516269E-05  5.96648625E-05  6.08910938E-05  6.02217493E-05  7.24677326E-05  8.16423759E-05  9.64444561E-05  1.27348258E-04  1.55863218E-04  1.86252077E-04  1.84498488E-04  1.95445741E-04  1.98601544E-04  1.93939684E-04  1.66842892E-04  1.22926040E-04  8.78343737E-05  6.36683717E-05  3.49865541E-05  2.15311008E-05
    1.37285816E-05  1.13817296E-05  1.11062787E-05  1.46240496E-05  2.30372998E-05  3.63859519E-05  5.16326788E-05  6.91604763E-05  7.77349898E-05  9.89679516E-05  1.15055056E-04  1.23015441E-04  1.34917364E-04  1.47506184E-04  1.26155325E-04  1.17386846E-04  1.25413486E-04  1.09061375E-04  9.81135301E-05  7.85833070E-05
    6.28097699E-05  6.01743707E-05  6.47812072E-05  7.71308035E-05  1.08249623E-04  1.58440439E-04  1.96313422E-04  2.50886938E-04  3.01641399E-04  3.73921432E-04  4.80788806E-04  5.56270078E-04  5.80150427E-04  5.05573338E-04  4.20194544E-04  3.59904632E-04  2.90537519E-04  2.20353721E-04  1.94352082E-04  1.55129601E-04
    1.27792715E-04  1.02970055E-04  9.05325754E-05  7.56294409E-05  7.40444309E-05  8.52967668E-05  1.00191946E-04  1.16572086E-04  1.06778920E-04  8.96105756E-05  7.72365301E-05  7.18228121E-05  7.41499549E-05  7.38116908E-05  6.39825811E-05  4.75532626E-05  3.67251506E-05  2.92987241E-05  2.58210789E-05  3.02874916E-05
    9.67269526E-04       0.00101716       0.00116516       0.00136610       0.00184497       0.00236416       0.00279557       0.00358459       0.00457120       0.00478502       0.00356601       0.00285650       0.00196834       0.00108701  6.61796628E-04  4.39156940E-04  2.89897728E-04  2.03579702E-04  1.43733005E-04  1.10889834E-04
    8.13966399E-05  7.01852377E-05  6.93014419E-05  6.68286113E-05  7.46362980E-05  7.95679735E-05  8.88578136E-05  1.16377687E-04  1.53454926E-04  1.80011715E-04  1.87725951E-04  1.78083570E-04  1.92778024E-04  2.03800719E-04  1.89767722E-04  1.46991668E-04  1.06874083E-04  7.57719536E-05  4.49542524E-05  2.82679171E-05
    1.72174729E-05  1.35852236E-05  1.18369295E-05  1.51543589E-05  2.16024002E-05  3.32431930E-05  4.63371449E-05  6.43737239E-05  7.42020428E-05  9.62905603E-05  1.17192754E-04  1.20520197E-04  1.20237281E-04  1.24660367E-04  1.05490993E-04  8.60869946E-05  9.37148738E-05  9.88852061E-05  8.86497069E-05  7.36301457E-05
    6.05833788E-05  5.37938491E-05  5.54649048E-05  6.88538991E-05  9.67490936E-05  1.51687423E-04  1.90484269E-04  2.42977419E-04  2.93721748E-04  3.69991704E-04  4.99285428E-04  5.94172117E-04  6.72638918E-04  7.16328836E-04  6.00841910E-04  4.37581303E-04  3.67464524E-04  2.60741779E-04  2.20055707E-04  1.87177135E-04
    1.40930405E-04  1.11228830E-04  1.03918394E-04  9.74628445E-05  8.71136891E-05  9.63012379E-05  1.14111391E-04  1.28176132E-04  1.29923714E-04  1.11130524E-04  9.63020315E-05  8.30530585E-05  7.44949096E-05  7.33303270E-05  6.39781232E-05  5.44957683E-05  4.40421053E-05  3.44240705E-05  2.98839491E-05  3.24653607E-05
    9.35236376E-04       0.00105479       0.00123054       0.00135826       0.00169462       0.00217118       0.00268075       0.00343650       0.00434212       0.00477436       0.00387203       0.00314185       0.00247379       0.00146187  8.51559547E-04  5.72610904E-04  3.61993909E-04  2.47175735E-04  1.83099354E-04  1.36381832E-04
    1.05288953E-04  8.03973445E-05  8.00111832E-05  7.38171317E-05  7.58091081E-05  8.06105233E-05  8.50550204E-05  1.05776247E-04  1.45980433E-04  1.82471099E-04  1.87553839E-04  1.75929481E-04  1.72003525E-04  1.98791232E-04  2.05063251E-04  1.71690827E-04  1.24498026E-04  8.95081464E-05  5.74461083E-05  3.51288208E-05
    2.38085087E-05  1.74426451E-05  1.36128433E-05  1.66068469E-05  2.38268194E-05  3.28694958E-05  4.55146041E-05  6.17160545E-05  7.09335544E-05  9.28284453E-05  1.19312450E-04  1.15837707E-04  1.15386138E-04  1.09544303E-04  8.64360167E-05  6.62984027E-05  7.00773975E-05  8.24941968E-05  7.96196186E-05  6.70019581E-05
    5.42633760E-05  4.80736629E-05  4.70405755E-05  5.94406793E-05  9.18747473E-05  1.38113185E-04  1.87465028E-04  2.22756812E-04  2.85599779E-04  3.72174771E-04  5.13966842E-04  6.28029017E-04  7.08011351E-04  8.66505287E-04  8.63728410E-04  5.82299359E-04  4.50380883E-04  3.14091476E-04  2.43644130E-04  2.17643836E-04
    1.60593644E-04  1.29906927E-04  1.12133402E-04  1.11607875E-04  1.03646811E-04  1.02800651E-04  1.18428657E-04  1.44028690E-04  1.50356976E-04  1.29391818E-04  1.08813969E-04  9.36163001E-05  7.99482947E-05  7.26033253E-05  6.47217711E-05  5.74887578E-05  5.08696794E-05  4.04048366E-05  3.54546254E-05  3.72527304E-05
    9.27685692E-04       0.00107737       0.00128722       0.00140459       0.00170245       0.00218575       0.00267284       0.00343130       0.00453042       0.00465362       0.00441855       0.00371685       0.00302581       0.00216313       0.00127842  7.71559736E-04  5.29026431E-04  3.29483031E-04  2.40918961E-04  1.75631597E-04
    1.38635797E-04  9.94056724E-05  9.25986877E-05  8.60573174E-05  8.27683411E-05  8.90686977E-05  9.26594197E-05  1.10911355E-04  1.47151316E-04  1.91733730E-04  2.03660747E-04  1.88115160E-04  1.72640373E-04  1.91500478E-04  2.20061098E-04  2.05660217E-04  1.51843581E-04  1.03593648E-04  6.99076669E-05  4.51304208E-05
    3.20177998E-05  2.31054348E-05  1.82509254E-05  1.92189357E-05  2.78266557E-05  3.62494721E-05  4.81906352E-05  6.04320289E-05  7.31600329E-05  8.91598931E-05  1.13315072E-04  1.14580978E-04  1.09199062E-04  1.03292069E-04  7.81525024E-05  5.35768823E-05  5.42812584E-05  6.53399771E-05  7.13741287E-05  5.89998210E-05
    4.90463363E-05  4.35364979E-05  4.27891920E-05  5.13598059E-05  8.25555915E-05  1.25905618E-04  1.74007953E-04  2.05638151E-04  2.74843871E-04  3.51988479E-04  4.89456936E-04  6.86744311E-04  7.39218380E-04  9.39490848E-04       0.00110473  7.95672442E-04  5.85080134E-04  4.07988463E-04  2.96821040E-04  2.46922782E-04
    1.94212101E-04  1.53001371E-04  1.29268880E-04  1.23429097E-04  1.16745993E-04  1.12646455E-04  1.26245883E-04  1.46168090E-04  1.68892031E-04  1.38588663E-04  1.13800673E-04  8.80589328E-05  8.20850151E-05  7.18341045E-05  6.64851882E-05  6.11933069E-05  5.56003974E-05  4.81389521E-05  4.01716390E-05  4.04558208E-05
    9.33586839E-04       0.00106694       0.00123337       0.00135734       0.00155552       0.00209102       0.00256963       0.00319508       0.00408613       0.00449433       0.00457321       0.00371681       0.00324876       0.00256836       0.00168410  9.98127321E-04  6.80954489E-04  4.33730838E-04  2.86408719E-04  2.15367238E-04
    1.61677143E-04  1.15762979E-04  9.62575745E-05  9.57118281E-05  8.94272730E-05  9.19208741E-05  1.00564849E-04  1.16969216E-04  1.47440428E-04  1.88406254E-04  1.95154092E-04  1.86446795E-04  1.72001809E-04  1.79376546E-04  2.19011007E-04  2.07811999E-04  1.67449484E-04  1.09268714E-04  7.82084481E-05  6.04803529E-05
    4.31670493E-05  2.98555924E-05  2.42483651E-05  2.48379031E-05  3.21643119E-05  4.12339382E-05  5.07356783E-05  6.43402674E-05  7.21342418E-05  8.23880518E-05  9.85021783E-05  1.06471392E-04  1.08688549E-04  9.87021355E-05  7.36086442E-05  4.93236781E-05  4.30447215E-05  5.13389732E-05  5.98198984E-05  5.36024443E-05
    4.29727056E-05  3.89750069E-05  3.77906409E-05  4.29598893E-05  6.63023735E-05  1.05703349E-04  1.46887880E-04  1.85385345E-04  2.48440248E-04  3.25548121E-04  4.43552679E-04  6.60387059E-04  7.67882078E-04  9.75316208E-04       0.00116111       0.00102209  7.32352354E-04  5.30703800E-04  4.11810811E-04  3.07847491E-04
    2.43261073E-04  1.89611259E-04  1.51105785E-04  1.40733465E-04  1.32144363E-04  1.19735410E-04  1.34984487E-04  1.52269032E-04  1.73393666E-04  1.58836031E-04  1.16225977E-04  8.99008382E-05  8.23229437E-05  7.70250203E-05  7.47426329E-05  7.30625173E-05  6.32942926E-05  5.76970232E-05  4.97626895E-05  4.71709339E-05
         0.00108458       0.00114409       0.00131494       0.00150831       0.00158799       0.00207096       0.00248644       0.00307076       0.00400184       0.00420692       0.00458531       0.00388099       0.00322289       0.00290985       0.00212813       0.00128996  8.19492872E-04  5.41936916E-04  3.48005691E-04  2.61948423E-04
    1.83119610E-04  1.28521813E-04  1.09139902E-04  1.09171062E-04  1.06305411E-04  1.01736166E-04  1.08928707E-04  1.24962497E-04  1.52133487E-04  1.82117314E-04  1.95659200E-04  1.91196118E-04  1.97015528E-04  1.95740122E-04  2.34998203E-04  2.17025298E-04  1.77396700E-04  1.19917693E-04  8.92159182E-05  7.34550666E-05
    5.93063430E-05  4.18352332E-05  3.11329578E-05  3.55475919E-05  4.44520345E-05  5.05308065E-05  5.81931631E-05  7.66145827E-05  7.63044677E-05  7.68196263E-05  8.56848483E-05  9.71386018E-05  1.03239582E-04  9.63451390E-05  7.51507423E-05  4.85823270E-05  3.85011633E-05  4.24816938E-05  4.89208907E-05  4.63492947E-05
    4.17758509E-05  3.55040919E-05  3.45565754E-05  3.67218001E-05  5.65185920E-05  9.14657218E-05  1.23608395E-04  1.61519218E-04  2.11346294E-04  3.02707355E-04  4.27129396E-04  6.08906096E-04  8.07545449E-04  9.64655519E-04       0.00118962       0.00117154  9.17830540E-04  6.71419287E-04  5.32306671E-04  4.06540934E-04
    3.03230147E-04  2.37360358E-04  1.74596044E-04  1.58783330E-04  1.43184141E-04  1.38677760E-04  1.42344757E-04  1.63439590E-04  1.81545750E-04  1.80574541E-04  1.44497754E-04  9.94244351E-05  8.47636438E-05  8.09300873E-05  8.39889357E-05  8.41912515E-05  7.19207995E-05  6.22841371E-05  5.79362555E-05  5.22814781E-05
         0.00120296       0.00121786       0.00137305       0.00157011       0.00164930       0.00196225       0.00226080       0.00278911       0.00375343       0.00414837       0.00391645       0.00356204       0.00307647       0.00278038       0.00228192       0.00148952  9.08891055E-04  6.06529116E-04  3.87754097E-04  2.84416526E-04
    1.98460819E-04  1.38066355E-04  1.13842252E-04  1.15190178E-04  1.08114049E-04  1.04458554E-04  1.11713607E-04  1.32482999E-04  1.54491604E-04  1.87097458E-04  1.96644357E-04  1.98562967E-04  2.13058515E-04  2.32769739E-04  2.49284768E-04  2.38247027E-04  1.93078013E-04  1.31030980E-04  1.01809096E-04  8.50166877E-05
    7.69504439E-05  6.03296652E-05  4.25272173E-05  4.60331389E-05  5.64076978E-05  6.05958166E-05  6.68233129E-05  8.45092951E-05  8.86371065E-05  7.68594476E-05  7.74871514E-05  8.45491004E-05  9.37340644E-05  9.43370564E-05  7.85042384E-05  5.14315147E-05  3.56948546E-05  3.30643007E-05  3.79371308E-05  4.08550281E-05
    3.59852381E-05  3.16053993E-05  3.07603965E-05  3.44096782E-05  4.61797377E-05  7.99045177E-05  1.05139341E-04  1.38584357E-04  1.87373818E-04  2.62390776E-04  4.06889302E-04  5.73070477E-04  7.97587337E-04  9.76329161E-04       0.00114365       0.00120378       0.00101566  7.60475537E-04  5.96106317E-04  4.82205158E-04
    3.55410920E-04  2.74424086E-04  2.06790108E-04  1.75586761E-04  1.44936996E-04  1.50287420E-04  1.47236793E-04  1.73215637E-04  1.92889109E-04  2.11751997E-04  1.80151742E-04  1.18247441E-04  9.14508393E-05  8.39956985E-05  8.60017602E-05  9.15813945E-05  7.59579757E-05  6.50972886E-05  6.28635132E-05  5.86121294E-05
         0.00116228       0.00129380       0.00138762       0.00173159       0.00191133       0.00207638       0.00226955       0.00256336       0.00327254       0.00401609       0.00360286       0.00318558       0.00309604       0.00278408       0.00240599       0.00161603  9.65613498E-04  6.49552138E-04  4.27486276E-04  3.21417908E-04
    2.20178962E-04  1.57201394E-04  1.17088914E-04  1.19341271E-04  1.17798863E-04  1.13068126E-04  1.17325345E-04  1.36845516E-04  1.64279189E-04  1.90649466E-04  2.11356518E-04  2.22856802E-04  2.37339187E-04  2.83067211E-04  2.67466336E-04  2.48449642E-04  2.05908616E-04  1.47411749E-04  1.11098676E-04  9.85357625E-05
    9.50549331E-05  8.20118645E-05  6.02734842E-05  5.74323364E-05  6.86578158E-05  7.02853131E-05  7.47358760E-05  8.75377422E-05  9.83861881E-05  8.42410065E-05  7.74479803E-05  7.74670108E-05  7.98647349E-05  8.68636454E-05  7.70651672E-05  5.43976037E-05  3.64262252E-05  2.81581762E-05  2.83927477E-05  3.02839227E-05
    2.90666100E-05  2.66648052E-05  2.70739050E-05  3.18881548E-05  3.99609172E-05  6.62071982E-05  9.29291431E-05  1.23607955E-04  1.64816670E-04  2.45312901E-04  4.02918276E-04  5.83899209E-04  8.29844740E-04       0.00100166       0.00111670       0.00114047       0.00109664  9.00634160E-04  6.50164569E-04  5.11173117E-04
    3.88820460E-04  2.86690203E-04  2.13807401E-04  1.79357203E-04  1.52057113E-04  1.50283781E-04  1.55385672E-04  1.76196474E-04  2.01344850E-04  2.35062472E-04  2.19362535E-04  1.39758260E-04  9.65046667E-05  8.45952230E-05  8.50028131E-05  9.45514536E-05  7.80887251E-05  6.95539553E-05  6.48785120E-05  6.75909434E-05
         0.00110334       0.00130838       0.00143726       0.00188007       0.00225606       0.00243645       0.00259442       0.00254447       0.00303939       0.00357468       0.00344614       0.00303422       0.00304513       0.00292039       0.00258435       0.00165587       0.00111270  7.05927100E-04  5.07295238E-04  3.51067752E-04
    2.61601912E-04  1.77034204E-04  1.35968931E-04  1.27333523E-04  1.39300797E-04  1.38301123E-04  1.30792286E-04  1.46043869E-04  1.75324760E-04  2.12153630E-04  2.37675400E-04  2.55562746E-04  2.64274376E-04  3.33124398E-04  3.14453108E-04  2.67819791E-04  2.15660374E-04  1.68180900E-04  1.25018575E-04  1.10454445E-04
    1.22682312E-04  1.08649578E-04  8.33371483E-05  7.49463859E-05  8.51103918E-05  8.63680896E-05  8.95389875E-05  1.01521642E-04  1.10364644E-04  9.87975912E-05  8.93930873E-05  8.20113468E-05  8.20844954E-05  8.27345718E-05  7.75567803E-05  6.00619384E-05  4.09735896E-05  2.91876604E-05  2.31191000E-05  2.36684830E-05
    2.36701735E-05  2.38727040E-05  2.36789245E-05  3.02085865E-05  3.87289158E-05  6.21743965E-05  8.88723803E-05  1.15917606E-04  1.67135180E-04  2.47027240E-04  4.24316539E-04  6.80012108E-04  8.84409469E-04       0.00104690       0.00112927       0.00112324       0.00113785       0.00104400  7.83066114E-04  5.59091057E-04
    4.23967972E-04  3.02174078E-04  2.22403920E-04  1.73963868E-04  1.53125075E-04  1.58707184E-04  1.68683878E-04  1.82424292E-04  2.07179231E-04  2.49533780E-04  2.55200788E-04  1.74966984E-04  1.16059400E-04  8.74506794E-05  8.57566037E-05  9.20610539E-05  7.96282763E-05  7.11173243E-05  6.90039012E-05  7.13742889E-05
    9.70574682E-04       0.00123123       0.00148711       0.00195774       0.00262379       0.00278863       0.00302060       0.00281575       0.00286252       0.00309012       0.00333356       0.00327149       0.00298758       0.00295237       0.00275920       0.00176052       0.00114865  7.63934580E-04  5.70228311E-04  3.92441320E-04
    2.90823775E-04  2.07763800E-04  1.52857155E-04  1.44598527E-04  1.53654860E-04  1.53717594E-04  1.56533354E-04  1.59085588E-04  1.94160215E-04  2.23426365E-04  2.48452735E-04  2.62889750E-04  2.89048102E-04  3.49078837E-04  3.65761562E-04  2.84966522E-04  2.10742336E-04  1.67974392E-04  1.30540022E-04  1.12682403E-04
    1.32534346E-04  1.31521030E-04  1.13914326E-04  9.28884843E-05  1.00733386E-04  1.11122216E-04  1.10741329E-04  1.17378404E-04  1.28892716E-04  1.16167370E-04  1.05200343E-04  9.53846418E-05  9.32455654E-05  8.38725296E-05  7.84863818E-05  6.46443200E-05  4.52847305E-05  3.11996062E-05  2.14445737E-05  1.95687560E-05
    1.97400873E-05  2.14672001E-05  2.34606672E-05  2.62182366E-05  3.71383843E-05  5.69232474E-05  7.94155591E-05  1.14838853E-04  1.58562862E-04  2.50211596E-04  4.34480361E-04  7.77091973E-04       0.00101031       0.00115970       0.00115513       0.00115529       0.00114456       0.00114921  9.58203492E-04  6.26549538E-04
    4.46856396E-04  3.18745571E-04  2.39798489E-04  1.73806806E-04  1.51338655E-04  1.58935153E-04  1.80389903E-04  1.93572139E-04  2.11698597E-04  2.74849608E-04  2.79189881E-04  2.27954345E-04  1.47224968E-04  1.01679837E-04  9.28580092E-05  9.69724559E-05  8.31416166E-05  7.08596766E-05  6.90530416E-05  7.28139076E-05
    8.45905024E-04       0.00111697       0.00154954       0.00205346       0.00259850       0.00327653       0.00348333       0.00324242       0.00296041       0.00293419       0.00315729       0.00335902       0.00315331       0.00310007       0.00269901       0.00197467       0.00126149  8.34091979E-04  6.20214089E-04  4.54148056E-04