# File generated by Flopy version 3.6.0 on 04/08/2024 at 13:08:57.
BEGIN griddata
  strt
    INTERNAL  FACTOR  1.0
        15.00000000      15.00000000      15.00000000      15.00000000      15.00000000      15.00000000      15.00000000      15.00000000      15.00000000      15.00000000      15.00000000      15.00000000      15.00000000      15.00000000      15.00000000      15.00000000      15.00000000      15.00000000      15.00000000      15.00000000
        15.00000000      15.00000000      15.00000000      15.00000000      15.00000000      15.00000000      15.00000000      15.00000000      15.00000000      15.00000000      15.00000000      15.00000000      15.00000000      15.00000000      15.00000000      15.00000000      15.00000000      15.00000000      15.00000000      15.00000000
        15.00000000      15.00000000      15.00000000      15.00000000      15.00000000      15.00000000      15.00000000      15.00000000      15.00000000      15.00000000      15.00000000      15.00000000      15.00000000      15.00000000      15.00000000      15.00000000      15.00000000      15.00000000      15.00000000      15.00000000
        15.00000000      15.00000000      15.00000000      15.00000000      15.00000000      15.00000000      15.00000000      15.00000000      15.00000000      15.00000000      15.00000000      15.00000000      15.00000000      15.00000000      15.00000000      15.00000000      15.00000000      15.00000000      15.00000000      15.00000000
        15.00000000      15.00000000      15.00000000      15.00000000      15.00000000      15.00000000      15.00000000      15.00000000      15.00000000      15.00000000      15.00000000      15.00000000      15.00000000      15.00000000      15.00000000      15.00000000      15.00000000      15.00000000      15.00000000      15.00000000
        15.02433943      15.02609414      15.02547544      15.02505930      15.02779581      15.03094813      15.03451249      15.03290732      15.02981833      15.02818504      15.02640660      15.02664138      15.02800880      15.02953942      15.03379790      15.03825187      15.03990776      15.04355092      15.04526235      15.04471562
        15.04335608      15.04293164      15.04068768      15.03695852      15.03332056      15.03188775      15.03384184      15.03884616      15.04046603      15.04048554      15.03999023      15.04021721      15.04056802      15.04637660      15.05187464      15.05009067      15.04760765      15.05491660      15.06558125      15.07447012
        15.07528478      15.07147565      15.06376523      15.06958909      15.08317763      15.09203595      15.09752868      15.10124816      15.09807098      15.08207400      15.07363160      15.07528890      15.07994552      15.08954247      15.10013274      15.10746788      15.09157611      15.08171763      15.08724585      15.09847785
        15.10472333      15.10100017      15.09336484      15.09376949      15.09941564      15.10524870      15.10849109      15.10801646      15.09998630      15.09187636      15.09788314      15.10321711      15.10564332      15.11352611      15.11806769      15.10717997      15.10206500      15.10825133      15.10661558      15.10565737
        15.10745814      15.10798361      15.11358034      15.12187220      15.12625745      15.12368806      15.12361032      15.12215507      15.10621676      15.10225639      15.09706571      15.08814467      15.07206918      15.05735336      15.05578981      15.05748470      15.05583150      15.05517012      15.05307195      15.04940699
        15.04132743      15.04468704      15.04686110      15.04812730      15.05141479      15.05512749      15.06085613      15.06155275      15.05676423      15.05420666      15.05265851      15.05267282      15.05527778      15.05837988      15.06354474      15.07045465      15.07673414      15.08090510      15.08520239      15.08754145
        15.08519895      15.08318655      15.08141653      15.07597792      15.07058584      15.06759799      15.06920355      15.07657671      15.08119018      15.08085570      15.08099655      15.08123384      15.08222527      15.08791252      15.09681544      15.09918515      15.09750145      15.10481298      15.11868080      15.13195152
        15.13882526      15.14100010      15.13316569      15.13499535      15.15291712      15.17053104      15.18576953      15.19697105      15.19561629      15.17889766      15.15671726      15.15474747      15.15684216      15.16800339      15.17972302      15.19059350      15.18244262      15.16682670      15.16809642      15.17872028
        15.18901416      15.19253293      15.18296476      15.18123210      15.18875185      15.19514191      15.20337230      15.20311217      15.19732917      15.18443513      15.18320728      15.19545053      15.19990387      15.21010926      15.22088125      15.21156395      15.19915459      15.20037076      15.20380483      15.20175189
        15.20201974      15.20322753      15.20872696      15.22148955      15.23311459      15.23753297      15.23031122      15.22843262      15.20915538      15.19177506      15.18264196      15.16870849      15.14715347      15.11955111      15.10761052      15.10713739      15.10609498      15.10355397      15.10242016      15.09829886
        15.05686445      15.06056506      15.06464890      15.06751809      15.07129727      15.07556792      15.08096174      15.08406012      15.08145319      15.07781310      15.07726405      15.07861483      15.08106714      15.08522482      15.09033540      15.09836782      15.10725413      15.11375315      15.11949141      15.12565598
        15.12600190      15.12355567      15.12187503      15.11598601      15.11070954      15.10768961      15.10825340      15.11471954      15.12145554      15.12150644      15.12197192      15.12248014      15.12432137      15.12843393      15.13688304      15.14382365      15.14508066      15.15143915      15.16570104      15.18031154
        15.19255130      15.20018491      15.20121328      15.19958815      15.21701849      15.24030906      15.26304055      15.28095891      15.28585194      15.27787794      15.25329025      15.24267961      15.23988526      15.24385366      15.25222924      15.25850715      15.26196164      15.25010329      15.24212472      15.24961301
        15.26224202      15.27178091      15.26857171      15.26193279      15.26725382      15.27494448      15.28415586      15.28631480      15.28401369      15.27503002      15.26548822      15.27389846      15.28407135      15.29416686      15.30515067      15.30620750      15.29386089      15.28764749      15.29156440      15.28920778
        15.28527623      15.28816258      15.29448271      15.30930877      15.32404416      15.33769053      15.33098518      15.32372824      15.30594226      15.27774305      15.25939007      15.24329457      15.22026998      15.18590468      15.15883962      15.15141686      15.15097333      15.14809578      15.14663342      15.14476302
        15.07359392      15.07632948      15.08089884      15.08518462      15.08899305      15.09281227      15.09666528      15.10172335      15.10253427      15.09951188      15.09961706      15.10259143      15.10473242      15.10868166      15.11491509      15.12305650      15.13253410      15.14194577      15.15038488      15.15767847
        15.16257272      15.16226214      15.16178851      15.15934804      15.15545091      15.15192934      15.15017085      15.15397639      15.16056876      15.16146879      15.16173495      15.16336330      15.16520222      15.16822214      15.17479589      15.18337931      15.18965636      15.19572031      15.20853663      15.22346873
        15.23870880      15.25143361      15.26271242      15.26589240      15.28048407      15.30768325      15.33237138      15.35349338      15.36728568      15.36784453      15.35470761      15.34093745      15.33338388      15.32091998      15.32185385      15.32552399      15.33272696      15.32759201      15.31491005      15.31468329
        15.32858582      15.34076628      15.34588368      15.33925419      15.34087989      15.34654098      15.35389054      15.35990287      15.35816275      15.35532491      15.34628765      15.34491843      15.35825743      15.36977307      15.37837664      15.38663145      15.38109425      15.37357973      15.37098135      15.36923006
        15.36514892      15.36561681      15.37307885      15.38831133      15.40507707      15.42139529      15.42568216      15.41339723      15.39820440      15.36236398      15.33203324      15.31029674      15.28739136      15.25353961      15.21517071      15.19539375      15.19204202      15.19007565      15.18881604      15.18777091
        15.09319860      15.09388281      15.09825293      15.10315380      15.10616860      15.10923937      15.11194183      15.11688422      15.12013927      15.11937349      15.11985177      15.12324438      15.12632681      15.12997512      15.13668124      15.14486118      15.15505310      15.16551361      15.17656655      15.18554834
        15.19344413      15.19657739      15.19891042      15.20234774      15.20226294      15.19840722      15.19377521      15.19449408      15.19887316      15.20126639      15.20142240      15.20333496      15.20430979      15.20700789      15.21305390      15.22172274      15.23219324      15.23962454      15.25145557      15.26575789
        15.28251956      15.29928288      15.31686912      15.33040509      15.34586206      15.37120862      15.39862967      15.41964591      15.43893596      15.44677177      15.44482328      15.43705210      15.42885946      15.40436291      15.39057479      15.39126793      15.39798268      15.39837632      15.38663855      15.37858173
        15.38700908      15.40090903      15.41209017      15.41179967      15.41124271      15.41360484      15.41840167      15.42692130      15.42533685      15.42487526      15.42407932      15.41760031      15.42512745      15.43787375      15.44766310      15.45730305      15.45660622      15.45025616      15.44358549      15.44135427
        15.44055221      15.43958130      15.44531778      15.45889649      15.47709281      15.49244885      15.50522690      15.49731375      15.48403618      15.44663998      15.40666318      15.37541047      15.35000311      15.31973902      15.27686725      15.24375656      15.23258205      15.22898030      15.22825327      15.22833717
        15.11537233      15.11499388      15.11742379      15.12176137      15.12465336      15.12667866      15.12863253      15.13219179      15.13588457      15.13777227      15.13843288      15.14111990      15.14525353      15.14956768      15.15605140      15.16481895      15.17492721      15.18596358      15.19821645      15.20945055
        15.21899546      15.22602189      15.23121752      15.23854148      15.24444494      15.24392732      15.23886100      15.23536086      15.23811921      15.24164164      15.24165311      15.24288472      15.24243678      15.24490262      15.25019898      15.26017219      15.27295045      15.28536562      15.29689270      15.31057682
        15.32749487      15.34618502      15.36565878      15.38911118      15.40999715      15.43350928      15.46115286      15.48067226      15.50154060      15.51511054      15.51900626      15.51659730      15.51363000      15.48950422      15.46007027      15.45434841      15.45798460      15.45881378      15.45026809      15.43947875
        15.44070906      15.45398131      15.46637647      15.47393856      15.47598008      15.48092876      15.48388246      15.48914811      15.49013839      15.48955847      15.49522288      15.49194590      15.49183764      15.50096896      15.51211971      15.51964966      15.52202374      15.51427491      15.50655836      15.50499923
        15.50540148      15.50808777      15.51153407      15.52136926      15.53795944      15.55296923      15.56661728      15.56831624      15.55792105      15.52736939      15.48343047      15.44654570      15.41584117      15.38511153      15.34357785      15.29905102      15.27559471      15.26801405      15.26566443      15.26767843
        15.13840387      15.13777867      15.13777681      15.14086735      15.14405578      15.14533354      15.14695331      15.14910061      15.15236259      15.15595131      15.15624922      15.15744995      15.16184655      15.16707471      15.17389377      15.18289579      15.19264135      15.20345486      15.21522113      15.22737561
        15.23872561      15.24867322      15.25730952      15.26764367      15.27790683      15.28328535      15.28181911      15.27743760      15.27891027      15.28452259      15.28466655      15.28447737      15.28230940      15.28320510      15.28845651      15.29946087      15.31395257      15.33082236      15.34306730      15.35693917
        15.37457232      15.39363934      15.41340033      15.44099191      15.46855460      15.49427326      15.51935102      15.53826593      15.55542754      15.57197049      15.57995880      15.57974480      15.58062150      15.56562715      15.53312580      15.51716520      15.51371593      15.51045411      15.50067394      15.49086888
        15.48989656      15.50003072      15.51250290      15.52555165      15.53416352      15.54433016      15.54938233      15.55194426      15.55412396      15.55268136      15.55804213      15.56153017      15.55968265      15.56224235      15.56941962      15.57491261      15.57900757      15.57184617      15.56163341      15.56009169
        15.56043517      15.56531694      15.56983800      15.57646391      15.58893939      15.60282176      15.61513606      15.62230157      15.61803222      15.59812785      15.55798939      15.52097512      15.48875896      15.45346783      15.41542375      15.36493502      15.32780555      15.31125206      15.30613157      15.30799804
        15.16147938      15.16027172      15.15897613      15.16000199      15.16303418      15.16460813      15.16594720      15.16718552      15.16988998      15.17363680      15.17472146      15.17448838      15.17805176      15.18313019      15.19006423      15.19830096      15.20654257      15.21556627      15.22594172      15.23796054
        15.25187974      15.26515855      15.27800936      15.29133699      15.30479759      15.31667155      15.32090145      15.32070172      15.32195940      15.33011282      15.33210144      15.32928839      15.32577237      15.32466310      15.33087918      15.34132278      15.35776759      15.37594052      15.39072037      15.40463017
        15.42232640      15.44062652      15.46089585      15.48609659      15.51839355      15.54947840      15.57342005      15.59151493      15.60533490      15.62017898      15.62952242      15.63002138      15.63094742      15.62539045      15.60148609      15.57805764      15.56557237      15.55532649      15.53764812      15.52522566
        15.52837657      15.53906452      15.55406007      15.56926356      15.58550685      15.59941404      15.61038770      15.61565990      15.61763871      15.61397561      15.61538107      15.62155690      15.62138042      15.62056023      15.62243997      15.62652414      15.62947227      15.62482485      15.61401974      15.61017469
        15.61149409      15.61477495      15.62077882      15.62543221      15.63422967      15.64600053      15.65684900      15.66642527      15.66775106      15.65697882      15.62675124      15.59249162      15.56134288      15.52618112      15.48923646      15.43972862      15.39136277      15.36542349      15.35471350      15.35430240
        15.18370106      15.18175970      15.17997285      15.17944417      15.18113180      15.18307651      15.18428206      15.18497325      15.18719372      15.18972129      15.19232593      15.19229483      15.19404794      15.19855783      15.20417925      15.21037637      15.21649787      15.22252072      15.23001084      15.24075207
        15.25904652      15.27766093      15.29449491      15.31230251      15.33046908      15.34750359      15.35851035      15.36342377      15.36667158      15.37410181      15.38056061      15.37847694      15.37371311      15.37110299      15.37738116      15.38806774      15.40553493      15.42307137      15.43865259      15.45195650
        15.46792131      15.48613870      15.50383507      15.52792399      15.56239429      15.59784354      15.62120849      15.64062434      15.65197177      15.66216687      15.67048745      15.67188672      15.67101570      15.66966156      15.65610754      15.63197401      15.60999522      15.58988813      15.55944603      15.53606068
        15.55039874      15.57161042      15.59257452      15.61049985      15.63053173      15.64759913      15.66333368      15.67400805      15.67817151      15.67427632      15.66908466      15.67208854      15.67284014      15.67376899      15.67467709      15.67626663      15.67731905      15.67424366      15.66545052      15.65940452
        15.66212716      15.66387295      15.66725173      15.67086850      15.67629774      15.68584317      15.69551496      15.70567717      15.71101745      15.70720231      15.68685067      15.65927590      15.62993206      15.59639537      15.55985572      15.51640628      15.46421826      15.43205731      15.41400466      15.40981104
        15.20356212      15.20145203      15.19923325      15.19802472      15.19824493      15.20012238      15.20075422      15.20147003      15.20324882      15.20436745      15.20702518      15.20844799      15.20953178      15.21286512      15.21644703      15.22033866      15.22399961      15.22623863      15.22650927      15.22817934
        15.26159037      15.28819086      15.31002042      15.33346912      15.35710820      15.37767821      15.39465672      15.40455196      15.41068838      15.41645824      15.42675773      15.42944680      15.42636208      15.42431271      15.42822192      15.43889297      15.45446775      15.47035423      15.48363019      15.49717920
        15.51130926      15.52781534      15.54336307      15.56687542      15.60223060      15.63867559      15.66365932      15.68265722      15.69243838      15.69887072      15.70565686      15.70841421      15.70510576      15.70305622      15.69530718      15.67675086      15.64932876      15.61625967      15.56377206      15.50681292
        15.55538506      15.59873504      15.63032953      15.65160070      15.67197648      15.69212872      15.70937051      15.72258552      15.72980944      15.73038521      15.72118964      15.71743325      15.71869383      15.72179999      15.72337096      15.72385919      15.72426534      15.72305232      15.71612502      15.70828069
        15.71004622      15.71293833      15.71248917      15.71398743      15.71578345      15.72180059      15.73074520      15.74104357      15.74979358      15.75115383      15.73782417      15.71609033      15.69461761      15.66482432      15.62918954      15.58949319      15.54128984      15.50494292      15.48307442      15.47313931
        15.21906255      15.21747758      15.21543401      15.21383689      15.21384364      15.21474195      15.21520706      15.21590766      15.21689221      15.21776948      15.21942548      15.22138887      15.22298835      15.22485773      15.22708122      15.22893119      15.23046892      15.22977938      15.21840256      15.16776231
        15.25861054      15.30043768      15.32804141      15.35563270      15.38428368      15.40712273      15.42676767      15.44168813      15.45167096      15.45868987      15.46864476      15.47589303      15.47945608      15.47982039      15.48197899      15.48987475      15.50224917      15.51622293      15.52634496      15.53863458
        15.55055139      15.56469451      15.58003498      15.60305160      15.63889586      15.67425093      15.70149512      15.71735130      15.72681020      15.73132622      15.73609402      15.74019014      15.73724446      15.73282847      15.72693799      15.71320113      15.68942892      15.64767940      15.56370526      15.36071433
        15.55672445      15.63245237      15.67153035      15.69450657      15.71474080      15.73377811      15.74969422      15.76286330      15.77183779      15.77694558      15.77182758      15.76265359      15.76258996      15.76420233      15.76699835      15.76859573      15.76885628      15.76918465      15.76471609      15.75601065
        15.75430191      15.75852481      15.75798700      15.75504866      15.75369057      15.75548892      15.76274022      15.77312248      15.78364000      15.78703653      15.77994735      15.76370885      15.74905624      15.72819567      15.69773018      15.66086701      15.61915649      15.58055113      15.56040685      15.54476848
        15.23041594      15.22916441      15.22786542      15.22665847      15.22635836      15.22611195      15.22694552      15.22739788      15.22807543      15.22910908      15.22981524      15.23139849      15.23298760      15.23415222      15.23585994      15.23683230      15.23800833      15.23955713      15.23898587      15.23948603
        15.28329890      15.32103744      15.35040228      15.37942503      15.41019433      15.43445824      15.45364767      15.47096761      15.48423690      15.49513295      15.50556378      15.51688746      15.52673479      15.53071393      15.53347970      15.53843440      15.54803899      15.55954085      15.56823640      15.57760262
        15.58753915      15.60013110      15.61509382      15.63861975      15.67185413      15.70669701      15.73388526      15.74782188      15.75676487      15.76075814      15.76312457      15.76701863      15.76795554      15.76293471      15.75745126      15.74829749      15.73232991      15.70455912      15.66083838      15.61072783
        15.65129366      15.69701850      15.72304155      15.74247319      15.75922668      15.77295675      15.78655450      15.79804201      15.80618762      15.81259951      15.81534961      15.80820839      15.80385825      15.80257629      15.80635258      15.80890153      15.81049895      15.81121897      15.80930612      15.80287116
        15.79753012      15.79939967      15.80114690      15.79585621      15.79174650      15.78978078      15.79307368      15.80246043      15.81204797      15.81674225      15.81371381      15.80298873      15.79325912      15.78123615      15.76095964      15.73105376      15.69404133      15.65804072      15.64081647      15.62554284
        15.23895871      15.23780572      15.23670107      15.23602871      15.23529668      15.23488969      15.23530816      15.23570632      15.23638104      15.23730069      15.23774357      15.23875717      15.23972738      15.24070046      15.24225251      15.24392972      15.24600678      15.24997940      15.25649542      15.27239648
        15.30742572      15.34388690      15.37349734      15.40360614      15.43405396      15.45785928      15.47542365      15.49182124      15.50787009      15.52252330      15.53590383      15.55075060      15.56555454      15.57421410      15.57815459      15.58282238      15.59059586      15.60052222      15.61054129      15.61762209
        15.62638941      15.63617308      15.65111012      15.67250493      15.70278470      15.73551547      15.75999986      15.77433669      15.78224308      15.78672094      15.78880844      15.79182338      15.79548317      15.79371188      15.78760270      15.78370355      15.77389166      15.75851509      15.74006593      15.72679960
        15.74058461      15.76449238      15.77973474      15.79288545      15.80357900      15.81370894      15.82249098      15.83058880      15.83673248      15.84235974      15.84873916      15.84817574      15.84269521      15.83939142      15.84116345      15.84421141      15.84846667      15.85070538      15.85081224      15.84722084
        15.84174833      15.83892782      15.84099343      15.83736790      15.83127796      15.82478392      15.82423053      15.83031144      15.83701015      15.84311070      15.84286804      15.83574192      15.83012301      15.82481596      15.81522775      15.79536210      15.76365215      15.73209958      15.71253330      15.70499480
        15.24513692      15.24408341      15.24278470      15.24214526      15.24147314      15.24099979      15.24083886      15.24115635      15.24169956      15.24240760      15.24280780      15.24323963      15.24381913      15.24460257      15.24601058      15.24860330      15.25233252      15.25792061      15.26738765      15.28830343
        15.32424799      15.36358668      15.39620875      15.42701052      15.45513742      15.47718445      15.49342000      15.50833850      15.52497082      15.54227291      15.55888025      15.57772831      15.59650784      15.60995998      15.61618310      15.62156627      15.62937298      15.63972797      15.65096448      15.65898905
        15.66669030      15.67386551      15.68780515      15.70665637      15.73317390      15.76016916      15.78237546      15.79684938      15.80359045      15.80865358      15.81255511      15.81603831      15.81960999      15.82211876      15.81880469      15.81595843      15.81304010      15.80556569      15.79725963      15.79494041
        15.80642534      15.82036304      15.83205515      15.84017022      15.84676051      15.85504873      15.85986202      15.86410525      15.86789977      15.87069150      15.87509668      15.87944673      15.87738437      15.87467453      15.87311428      15.87612286      15.88099206      15.88592325      15.88950179      15.88732684
        15.88495157      15.87983125      15.87888565      15.87734351      15.87061238      15.86165098      15.85637360      15.85730391      15.86147342      15.86713569      15.87036474      15.86687350      15.86300438      15.86241004      15.85914388      15.84737370      15.82370542      15.79656736      15.77526476      15.77030420
        15.24893589      15.24820190      15.24679700      15.24586504      15.24525133      15.24469522      15.24429963      15.24444887      15.24481950      15.24512594      15.24511333      15.24502743      15.24514888      15.24577891      15.24709884      15.24965970      15.25452634      15.26169887      15.27145405      15.29103696
        15.33139270      15.37767594      15.41543400      15.44681954      15.47310554      15.49400713      15.50917882      15.52292150      15.53866855      15.55806340      15.57776111      15.59903930      15.62176354      15.63984581      15.64902048      15.65573052      15.66402340      15.67481765      15.68755993      15.69818007
        15.70540261      15.71277421      15.72386375      15.74110543      15.76135867      15.78297070      15.80316783      15.81614661      15.82252797      15.82739954      15.83306004      15.83791164      15.84174321      15.84614009      15.84778087      15.84517088      15.84658152      15.84563951      15.84238589      15.84475820
        15.85392775      15.86315029      15.87427805      15.88035383      15.88701874      15.89347353      15.89760483      15.89808716      15.89978686      15.89952116      15.90046748      15.90527473      15.90688274      15.90624256      15.90384548      15.90623950      15.90943837      15.91686024      15.92363434      15.92390637
        15.92259345      15.91934207      15.91418523      15.91345764      15.90736288      15.89911748      15.88958980      15.88519034      15.88688984      15.89060949      15.89647860      15.89749047      15.89513489      15.89707797      15.89581481      15.88942148      15.87304286      15.85071244      15.83329418      15.82500103
        15.25059749      15.24992715      15.24870659      15.24769597      15.24707728      15.24660833      15.24609218      15.24586847      15.24596495      15.24584841      15.24510231      15.24421526      15.24368269      15.24391589      15.24536006      15.24748545      15.25168113      15.25950398      15.26980608      15.28635987
        15.32580022      15.37870858      15.42553876      15.46142876      15.48829070      15.50902583      15.52364450      15.53656733      15.55197828      15.57163729      15.59399054      15.61792673      15.64487291      15.66735228      15.67905202      15.68729016      15.69581225      15.70685206      15.72084094      15.73228191
        15.74046523      15.74863530      15.75793013      15.77231825      15.78763851      15.80578907      15.82277241      15.83398112      15.84051815      15.84514190      15.85080026      15.85665339      15.86190870      15.86743993      15.87265480      15.87259105      15.87427264      15.87737725      15.87935628      15.88423020
        15.89093818      15.89738432      15.90661009      15.91359141      15.92108291      15.92751826      15.93159989      15.93042565      15.93077199      15.92936844      15.92762837      15.92957436      15.93305111      15.93448002      15.93385371      15.93471208      15.93750666      15.94445765      15.95236935      15.95673671
        15.95496963      15.95458245      15.94815637      15.94547053      15.94089201      15.93357520      15.92331703      15.91519751      15.91302201      15.91520729      15.92109981      15.92625411      15.92636213      15.92881503      15.92944526      15.92688916      15.91636884      15.89958826      15.88602847      15.87656055
        15.25006838      15.24957800      15.24865266      15.24779590      15.24717665      15.24664931      15.24609069      15.24545297      15.24507691      15.24461070      15.24317846      15.24120009      15.23962075      15.23899153      15.24042322      15.24237432      15.24482124      15.25121017      15.26245010      15.27720726
        15.30879000      15.36392635      15.42347602      15.46945714      15.50013350      15.52190681      15.53729513      15.55002211      15.56494737      15.58387580      15.60821310      15.63597238      15.66703551      15.69259795      15.70746087      15.71753006      15.72718976      15.73836025      15.75093424      15.76382594