# File generated by Flopy version 3.6.0 on 04/09/2024 at 15:18:25.
BEGIN griddata
  strt
    INTERNAL  FACTOR  1.0
        15.00000000      15.00000000      15.00000000      15.00000000      15.00000000      15.00000000      15.00000000      15.00000000      15.00000000      15.00000000      15.00000000      15.00000000      15.00000000      15.00000000      15.00000000      15.00000000      15.00000000      15.00000000      15.00000000      15.00000000
        15.00000000      15.00000000      15.00000000      15.00000000      15.00000000      15.00000000      15.00000000      15.00000000      15.00000000      15.00000000      15.00000000      15.00000000      15.00000000      15.00000000      15.00000000      15.00000000      15.00000000      15.00000000      15.00000000      15.00000000
        15.00000000      15.00000000      15.00000000      15.00000000      15.00000000      15.00000000      15.00000000      15.00000000      15.00000000      15.00000000      15.00000000      15.00000000      15.00000000      15.00000000      15.00000000      15.00000000      15.00000000      15.00000000      15.00000000      15.00000000
        15.00000000      15.00000000      15.00000000      15.00000000      15.00000000      15.00000000      15.00000000      15.00000000      15.00000000      15.00000000      15.00000000      15.00000000      15.00000000      15.00000000      15.00000000      15.00000000      15.00000000      15.00000000      15.00000000      15.00000000
        15.00000000      15.00000000      15.00000000      15.00000000      15.00000000      15.00000000      15.00000000      15.00000000      15.00000000      15.00000000      15.00000000      15.00000000      15.00000000      15.00000000      15.00000000      15.00000000      15.00000000      15.00000000      15.00000000      15.00000000
        15.03135394      15.02892111      15.03287004      15.03165747      15.02910759      15.02933760      15.03243302      15.03344543      15.03284154      15.02949713      15.02543429      15.03091863      15.03447415      15.03375212      15.03015413      15.02451744      15.02161021      15.02519966      15.02880711      15.02812944
        15.02530630      15.02015269      15.01459933      15.01470557      15.01691095      15.01867507      15.02132472      15.02222804      15.02298636      15.02706882      15.02978203      15.03189169      15.03654941      15.03878103      15.03809447      15.03467316      15.03220898      15.02918178      15.03253596      15.04167326
        15.04390491      15.04525632      15.05036694      15.05267770      15.04965187      15.04727447      15.04661314      15.04211492      15.03063702      15.02819699      15.02846615      15.03179861      15.04016649      15.05394634      15.06925951      15.07231529      15.06632683      15.05963232      15.04595986      15.02769835
        15.02300182      15.01509679      15.00644024      15.00483857      15.00688051      15.01019861      15.01514274      15.01949509      15.02319727      15.03302078      15.04290980      15.04434957      15.03633979      15.04021419      15.04994797      15.05042257      15.05272872      15.05484515      15.07041247      15.07281525
        15.05020706      15.02981880      15.02452778      15.02255782      15.02021179      15.01428314      15.00813119      15.00579307      15.00594758      15.00628907      15.00751502      15.00959697      15.01079850      15.01070887      15.01140603      15.01298662      15.01628634      15.02075749      15.02649071      15.02890408
        15.06057478      15.05648303      15.05867295      15.05959332      15.05643677      15.05410286      15.05721641      15.06082598      15.05968502      15.05832927      15.05271635      15.05614806      15.06536277      15.07086226      15.07180730      15.05989506      15.04428687      15.04684519      15.05083136      15.05248931
        15.05056543      15.04399874      15.03491569      15.03121515      15.03420117      15.03676518      15.03824711      15.04197002      15.04245321      15.04762409      15.05695473      15.06039133      15.06341625      15.06379194      15.06418017      15.06018587      15.05927122      15.05680977      15.05893352      15.06752537
        15.07522921      15.07933365      15.08283430      15.08718882      15.08470085      15.08058414      15.08022005      15.07902683      15.06730742      15.06096534      15.06107284      15.06521718      15.07258906      15.08574528      15.10247860      15.10691974      15.10269018      15.09826154      15.08482596      15.05543124
        15.03914510      15.02918319      15.01725027      15.01269782      15.01443507      15.01957522      15.02654751      15.03339211      15.04113321      15.05330102      15.06789655      15.07622579      15.07353281      15.07676668      15.08478251      15.09024454      15.09504474      15.09925280      15.10891994      15.11591884
        15.09344984      15.06397062      15.04715268      15.03836121      15.03606382      15.03010678      15.02088691      15.01405130      15.01243557      15.01345456      15.01479908      15.01770601      15.02029486      15.02194225      15.02373308      15.02672705      15.03105578      15.03671774      15.04273002      15.04783587
        15.08597542      15.08216660      15.07924668      15.08436450      15.08061967      15.07806256      15.07841935      15.08200083      15.08244009      15.08438953      15.08233756      15.08308164      15.09349646      15.10471252      15.11281314      15.10326830      15.07528929      15.06459045      15.06739203      15.07070785
        15.07263060      15.06861736      15.06022277      15.05215666      15.05328268      15.05694463      15.05858721      15.06168908      15.06396265      15.06884818      15.08007022      15.08768580      15.08710009      15.08597010      15.08657593      15.08118232      15.07923784      15.07966866      15.08072489      15.08689152
        15.09594029      15.10251814      15.10619651      15.10993427      15.11084178      15.10806931      15.10780722      15.10873039      15.10375322      15.09712720      15.09663554      15.10064724      15.10556100      15.11502108      15.12788062      15.12801939      15.12229042      15.11726380      15.10922912      15.08189275
        15.05499272      15.04379368      15.03272280      15.02530510      15.02634173      15.03235631      15.03895275      15.04694986      15.05669417      15.06877596      15.08515591      15.09814497      15.10198387      15.10586201      15.11175851      15.12109710      15.12681143      15.13145869      15.13830520      15.14313097
        15.12624712      15.09535054      15.06940694      15.05424867      15.04936143      15.04450311      15.03793449      15.02731698      15.02125511      15.02170497      15.02310312      15.02611087      15.02929999      15.03324339      15.03579629      15.03937067      15.04378463      15.04893053      15.05468546      15.06068756
        15.10752850      15.10460333      15.10012004      15.10365817      15.10180486      15.09980749      15.09875976      15.09900216      15.10116159      15.10484117      15.10743057      15.10842472      15.11743970      15.13235038      15.14293112      15.13984952      15.11331177      15.08532754      15.08283425      15.08506894
        15.08833383      15.09102315      15.08766667      15.07809183      15.07607015      15.08078745      15.08533944      15.08642724      15.08970436      15.09472659      15.10379156      15.11600203      15.11542942      15.10856241      15.10616970      15.10153258      15.09658020      15.09847117      15.09959163      15.10377399
        15.11227539      15.12054100      15.12532870      15.12791072      15.13086582      15.13209008      15.13175255      15.13412855      15.13584287      15.13326426      15.13068830      15.13308843      15.13664928      15.14422969      15.14909689      15.14619269      15.13429747      15.12794552      15.12246311      15.10296218
        15.07317916      15.05797049      15.05025132      15.04283781      15.04165532      15.04759599      15.05310683      15.06012095      15.07063876      15.08420049      15.10020821      15.11348376      15.12116558      15.12775327      15.13421379      15.14330806      15.14930114      15.15406029      15.15813852      15.15870700
        15.14627517      15.11984879      15.09373832      15.07301844      15.06357662      15.05941685      15.05540167      15.04651378      15.03431825      15.03132026      15.03283260      15.03549911      15.03833149      15.04366858      15.04759714      15.05028315      15.05380251      15.05918719      15.06431731      15.06819699
        15.12421553      15.12181570      15.11805034      15.11777413      15.11919759      15.11750164      15.11741881      15.11499367      15.11672215      15.11920447      15.12431628      15.12787345      15.13481990      15.14766805      15.16329368      15.15979684      15.14290873      15.11179620      15.09816149      15.09823988
        15.10070379      15.10755030      15.11665734      15.11078528      15.10608001      15.10989043      15.11763423      15.12281997      15.12451611      15.12769181      15.13403561      15.14781785      15.15251758      15.13704541      15.12620080      15.12396240      15.11810429      15.11704299      15.11830429      15.12062397
        15.12867171      15.13836489      15.14523525      15.14632596      15.14953257      15.15310986      15.15436636      15.15692392      15.16194838      15.16340537      15.16115460      15.15980432      15.16214902      15.16724497      15.16794491      15.16179937      15.14490661      15.13385595      15.12898407      15.11724339
        15.09111213      15.07152462      15.06462832      15.06060138      15.05780269      15.06256044      15.06790299      15.07326348      15.08399061      15.09909201      15.11330561      15.12581098      15.13634788      15.14388910      15.15084402      15.15814940      15.16508634      15.16944683      15.17121036      15.16963334
        15.15916463      15.13684796      15.11530692      15.09407541      15.08016609      15.07573511      15.07151794      15.06783251      15.05349282      15.04290872      15.04319359      15.04577939      15.04904150      15.05390692      15.05833466      15.06043083      15.06286024      15.06800639      15.07190320      15.07353878
        15.13530228      15.13321287      15.13115413      15.12979467      15.13192979      15.13097461      15.13129899      15.12971588      15.12952044      15.13078250      15.13508212      15.13992571      15.14499522      15.15255521      15.16931158      15.16883617      15.15703296      15.13437160      15.11303824      15.11076028
        15.11252887      15.11894992      15.14253604      15.15447329      15.14699700      15.15013025      15.15781750      15.16927156      15.17033211      15.16630838      15.17104797      15.18198651      15.19165811      15.17929337      15.15546945      15.15118308      15.14481863      15.14088441      15.14036863      15.14176254
        15.14749333      15.15794996      15.16684363      15.16884992      15.17066007      15.17607960      15.17781011      15.17820158      15.18429554      15.18625380      15.18443272      15.18143441      15.18090918      15.18224940      15.18328237      15.17313738      15.15313599      15.13668051      15.12920860      15.12267951
        15.10692743      15.08474497      15.07599976      15.07570891      15.07398260      15.07638368      15.08201319      15.08716523      15.09712026      15.11187727      15.12535157      15.13739611      15.14838980      15.15624945      15.16379866      15.17026946      15.17682407      15.18071673      15.18178613      15.17950303
        15.16884787      15.14881281      15.13146028      15.11531065      15.09876668      15.09147802      15.08803009      15.08566071      15.07541339      15.05907497      15.05533996      15.05656984      15.06135885      15.06463395      15.06832111      15.07077876      15.07198146      15.07563894      15.07849156      15.07927554
        15.14166452      15.14026474      15.13928584      15.13864959      15.13927043      15.13936950      15.13955495      15.13969947      15.13931863      15.14018170      15.14257487      15.14673285      15.15004458      15.15430405      15.16403643      15.17027000      15.16272767      15.14855614      15.12730207      15.12131063
        15.12277733      15.12858137      15.15432700      15.19824703      15.20295009      15.20347541      15.21160433      15.22137219      15.22095128      15.21164062      15.20737378      15.21364368      15.22244188      15.22535812      15.20316942      15.18821310      15.17887441      15.17206908      15.16912438      15.16944354
        15.17054439      15.17955745      15.18935968      15.19343888      15.19385616      15.20022899      15.20297969      15.20225895      15.20506330      15.20474807      15.20211174      15.19875119      15.19619511      15.19587236      15.19547902      15.18257420      15.15671775      15.13392795      15.12299346      15.11488645
        15.11125479      15.09734348      15.08774942      15.08887163      15.08915968      15.09008419      15.09501124      15.10087313      15.10970069      15.12310641      15.13659649      15.14765375      15.15809197      15.16662742      15.17441415      15.18085362      15.18606243      15.18921559      15.19001059      15.18802215
        15.17795659      15.15878819      15.14132177      15.13027960      15.11633941      15.10645576      15.10323235      15.10004135      15.09537346      15.07972962      15.07016230      15.06917223      15.07405891      15.07705276      15.07953320      15.08050098      15.08104797      15.08201531      15.08398002      15.08507212
        15.14527359      15.14457800      15.14387932      15.14371391      15.14383171      15.14423270      15.14435033      15.14498361      15.14550949      15.14648976      15.14796914      15.15056792      15.15259814      15.15487183      15.15863008      15.16622142      15.16462288      15.15672518      15.13989437      15.12870492
        15.13033296      15.13655028      15.15771208      15.21850771      15.26294915      15.26207345      15.26774152      15.27701789      15.27442927      15.26145605      15.24728200      15.24543308      15.25314299      15.26300716      15.25915084      15.23801724      15.22152991      15.21078647      15.20492317      15.20306485
        15.19910287      15.20247014      15.21081596      15.21692574      15.21726026      15.22118035      15.22534102      15.22685444      15.22512637      15.22362719      15.21947113      15.21524409      15.21171849      15.20932473      15.20488073      15.18940096      15.15584968      15.12388725      15.10553078      15.09107253
        15.09613848      15.10361431      15.10063257      15.10042083      15.10355973      15.10449220      15.10767945      15.11373220      15.12177222      15.13323501      15.14646819      15.15723591      15.16656049      15.17572072      15.18373149      15.19033742      15.19338386      15.19482665      15.19541850      15.19329943
        15.18376692      15.16641097      15.14901013      15.13871630      15.12839162      15.11871692      15.11507545      15.11273182      15.11021881      15.10052589      15.08744534      15.08386264      15.08564188      15.09043240      15.09190301      15.09019603      15.08966416      15.08849334      15.08933709      15.09079499
        15.14763666      15.14732076      15.14689735      15.14671256      15.14687065      15.14724420      15.14743645      15.14819191      15.14893073      15.14985690      15.15114489      15.15273856      15.15394021      15.15492596      15.15641716      15.15987761      15.16114763      15.15588085      15.14200935      15.12970435
        15.13325799      15.14247875      15.16086409      15.21636806      15.29445739      15.32323578      15.32768409      15.33102250      15.33296106      15.31796125      15.30140863      15.28743035      15.28901041      15.30163211      15.31221590      15.30064686      15.27596495      15.25511302      15.24601289      15.23993378
        15.23144322      15.22481022      15.22956855      15.23724596      15.23907355      15.23901642      15.24340062      15.24795875      15.24777426      15.24492565      15.23848668      15.23448446      15.22811495      15.22293791      15.21354316      15.19239898      15.14972161      15.10426278      15.06882150      15.04339209
        15.05374311      15.09630916      15.11206371      15.11331382      15.11775224      15.11932433      15.12098066      15.12595864      15.13307539      15.14260836      15.15415723      15.16494848      15.17423758      15.18344363      15.19213636      15.19823850      15.19964831      15.19919824      15.19919751      15.19657213
        15.18600705      15.16973562      15.15503650      15.14399715      15.13534269      15.12688706      15.12302256      15.12172635      15.12008581      15.11657112      15.10678281      15.09926771      15.09812917      15.10331170      15.10445328      15.10141435      15.09839206      15.09650899      15.09637429      15.09690846
        15.14893959      15.14888559      15.14876813      15.14867357      15.14880119      15.14924382      15.14961585      15.15005540      15.15080829      15.15155477      15.15283286      15.15397089      15.15444784      15.15464746      15.15517317      15.15586709      15.15553788      15.14880587      15.12463660      15.11354640
        15.11824374      15.08493836      15.09599997      15.12873514      15.14632529      15.16586641      15.21364399      15.30275266      15.37985178      15.38817387      15.38264071      15.39029888      15.38124402      15.36593532      15.35168935      15.34278725      15.35251846      15.36285173      15.36379078      15.34426473
        15.30512890      15.28950862      15.27594202      15.26326928      15.24911152      15.24679541      15.25287608      15.25766059      15.25719147      15.26014626      15.26518351      15.27135655      15.26808540      15.26081569      15.25528018      15.24585962      15.23661916      15.22240586      15.19626854      15.14434002
        15.07748202      15.00952306      14.98021037      14.97188307      14.92150021      14.90782603      14.98518482      15.07600971      15.12073892      15.12795048      15.13042361      15.13270482      15.13382575      15.13715151      15.14318608      15.15029715      15.15917557      15.17050805      15.18072955      15.19001439
        15.19927949      15.20454773      15.20539583      15.20377677      15.20249838      15.19930383      15.18747586      15.17013524      15.15728319      15.14797432      15.13991747      15.13284553      15.12836785      15.12709662      15.12639959      15.12497818      15.12128936      15.11481371      15.11210403      15.11481313
        15.11623480      15.11313618      15.10816249      15.10558175      15.10524649      15.10465777      15.14944176      15.14943883      15.14944796      15.14953857      15.14978664      15.15033983      15.15087565      15.15127478      15.15183319      15.15249937      15.15353797      15.15444930      15.15445067      15.15421923
        15.15413306      15.15405305      15.15248273      15.14504774      15.12227898      15.09183834      15.12676487      15.10166396      15.05090678      15.00996646      15.01653299      14.94357622      14.89629310      14.89750196      14.81235354      14.75570598      14.75595187      14.54027673      15.02257285      15.06948518
        14.92117347      14.97360093      14.82030951      14.87731410      14.76001126      14.85879138      14.94622874      15.04361882      15.02773554      14.92172130      14.82010389      14.75967237      14.87639841      14.85765140      14.97194959      14.94328500      15.06638361      15.03335389      14.82016141      14.88047407
        14.87974780      14.91070651      14.95772724      14.95540269      14.99147145      15.04820439      15.03917865      15.07611465      15.10914526      15.13026068      15.10883794      15.13147557      15.15165103      15.17802288      15.22148237      15.30833211      15.41383691      15.44615548      15.44095663      15.44446176
        15.44757642      15.43482852      15.42972273      15.41859295      15.41894437      15.42176943      15.42546866      15.42104554      15.37784296      15.33490680      15.31263040      15.29125485      15.27453705      15.26564431      15.26648099      15.27240042      15.27486729      15.27628153      15.28145836      15.29116970
        15.29164003      15.28340698      15.27223373      15.26261820      15.24906512      15.23215171      15.20146513      15.14467521      15.07074948      15.00058225      14.93934452      15.00848256      14.95343764      14.86889157      14.83151032      14.84647918      14.79361936      14.75932293      14.76734998      14.70879908
        14.67026042      14.67459455      14.53368146      14.82854344      14.85114623      14.76956241      14.79872195      14.70907609      14.74384097      14.67301270      14.73418797      14.78485339      14.83335139      14.86346954      14.78905505      14.71935865      14.67832509      14.75866635      14.74518568      14.82799542
        14.80742189      14.90680335      14.88191218      14.71507156      14.75200786      14.75705846      14.77491285      14.79984692      14.81109335      14.82934304      14.85080949      14.87939737      14.89494527      14.91746993      14.98186227      14.94041614      14.99749002      15.07356560      15.12909517      15.14272234
        15.14260832      15.14397378      15.14495419      15.14711889      15.15155742      15.15656413      15.16389024      15.17410076      15.18447591      15.19539461      15.20471635      15.20944635      15.21024565      15.20883619      15.20624950      15.20254288      15.18906507      15.17003837      15.15806891      15.15043675
        15.14266833      15.13628449      15.13228542      15.13057644      15.13001590      15.12948859      15.12870831      15.12658239      15.12439830      15.12509780      15.12625108      15.12410066      15.11881766      15.11527426      15.11513938      15.11558383      15.14948531      15.14935479      15.14923379      15.14925584
        15.14966065      15.15043981      15.15116850      15.15178560      15.15240227      15.15304782      15.15375126      15.15446031      15.15422804      15.15367132      15.15324201      15.15292140      15.15178728      15.14809769      15.13609703      15.10533579      15.10481251      15.13136331      15.13142011      15.14122256
        15.16700330      15.19480257      15.23811430      15.32380878      15.43249850      15.49637865      15.50388170      15.50208731      15.51118947      15.50679776      15.50395822      15.50360996      15.49547973      15.49327040      15.49341185      15.49391827      15.46684451      15.39919260      15.35427511      15.31933113
        15.29750631      15.28772845      15.28193208      15.28611882      15.28991073      15.29224367      15.29716319      15.30628033      15.31145675      15.30519737      15.28752976      15.27516352      15.26178137      15.24320905      15.20897431      15.15710701      15.09963111      15.03801163      14.96354775      14.95782025
        15.01912093      15.01671390      15.03727744      15.10327573      15.14452838      15.15598287      15.15564542      15.15374727      15.15399410      15.15527262      15.15821680      15.16189234      15.16772656      15.17627455      15.18659935      15.19865385      15.20847455      15.21348662      15.21466102      15.21414178
        15.21105397      15.20684282      15.19285815      15.17113393      15.15789593      15.15125026      15.14432982      15.13768115      15.13442236      15.13280555      15.13214236      15.13206056      15.13243659      15.13319179      15.13304404      15.13317863      15.13396911      15.13333766      15.13028521      15.12645768
        15.12620408      15.12872948      15.14925194      15.14878428      15.14848745      15.14820403      15.14860099      15.14956266      15.15055076      15.15138219      15.15245381      15.15326309      15.15378504      15.15420323      15.15388794      15.15306933      15.15238915      15.15182579      15.15098920      15.14978542
        15.14770399      15.14874520      15.16256843      15.18253403      15.20877313      15.25676543      15.33808715      15.44178620      15.52665918      15.55948465      15.56379459      15.57214485      15.57417701      15.57186971      15.57886003      15.57349558      15.56943872      15.56673499      15.56526861      15.54841843
        15.48337237      15.40434280      15.35136400      15.31916293      15.30899493      15.30125459      15.29990917      15.30331617      15.30787023      15.31272118      15.31979053      15.32596291      15.32459039      15.30810082      15.28608733      15.27350215      15.25587702      15.22411231      15.17971030      15.13700702
        15.10631725      15.08837922      15.11190982      15.13935060      15.16111461      15.16690346      15.16687330      15.16312361      15.16136554      15.16202981      15.16353258      15.16599596      15.17042171      15.17789642      15.18770004      15.20022225      15.21135984      15.21701138      15.21872128      15.21921793
        15.21653355      15.21134734      15.19779951      15.17450953      15.15818390      15.15101242      15.14542940      15.13858625      15.13494738      15.13376026      15.13308124      15.13303258      15.13425641      15.13635288      15.13799846      15.13870511      15.13977641      15.14059090      15.14104855      15.14031540
        15.14051819      15.14302377      15.14872674      15.14780182      15.14740663      15.14692618      15.14695837      15.14796814      15.14919455      15.15019601      15.15162447      15.15304044      15.15357598      15.15379241      15.15339865      15.15219707      15.15142571      15.15038530      15.14966594      15.14904401
        15.14931015      15.15309164      15.16598043      15.18523144      15.21589173      15.27069782      15.34398902      15.43894960      15.53988630      15.60345706      15.62297149      15.63395927      15.63474684      15.63225988      15.63785241      15.64042282      15.63545401      15.63604349      15.63240152      15.61209573
        15.55837187      15.46337935      15.38569150      15.34081962      15.32696330      15.32050565      15.31532673      15.31754794      15.32134111      15.32647558      15.33175348      15.33723706      15.33759241      15.32617997      15.30123540      15.28583900      15.26989124      15.24206349      15.20432815      15.17021717
        15.15077176      15.14340795      15.15298354      15.16547103      15.17371428      15.17535345      15.17401715      15.17103491      15.16799377      15.16718576      15.16756127      15.16904081      15.17248042      15.17848590      15.18767489      15.20082298      15.21382897      15.22052833      15.22265788      15.22400434
        15.22236429      15.21699328      15.20382709      15.17956335      15.15985280      15.15064470      15.14587319      15.13937182      15.13490102      15.13368228      15.13296084      15.13270248      15.13425906      15.13736726      15.14041782      15.14264851      15.14428931      15.14621682      15.14935667      15.15456812
        15.15847543      15.15924448      15.14773769      15.14659573      15.14579035      15.14528969      15.14480142      15.14566820      15.14730251      15.14833471      15.14975117      15.15204556      15.15300699      15.15306968      15.15246323      15.15094828      15.14994396      15.14850010      15.14765304      15.14703316
        15.14768916      15.15167622      15.16215758      15.17884943      15.20892239      15.26965526      15.34742230      15.43659812      15.53996422      15.62833940      15.66781516      15.68518732      15.68872695      15.68359411      15.68459783      15.68924430      15.69070632      15.69329945      15.68961159      15.66023394
        15.61133989      15.52208259      15.42031915      15.36597374      15.34188480      15.33681026      15.33158813      15.33024459      15.33222963      15.33580667      15.34062899      15.34569844      15.34623110      15.33802977      15.31751631      15.29753102      15.28325927      15.25948068      15.22657430      15.19565119
        15.17865188      15.17344385      15.17541815      15.18060807      15.18222102      15.18093980      15.17743145      15.17469167      15.17216684      15.17062548      15.17049927      15.17131585      15.17369195      15.17873800      15.18697265      15.20077529      15.21691534      15.22463066      15.22698004      15.22871573
        15.22878536      15.22424824      15.21261748      15.18659611      15.16171192      15.15108501      15.14599621      15.14008144      15.13472033      15.13302020      15.13200285      15.13123735      15.13253569      15.13666692      15.14119042      15.14508665      15.14782440      15.15070187      15.15582739      15.16484920
        15.17594144      15.17960763      15.14551242      15.14461448      15.14344574      15.14297270      15.14202716      15.14220804      15.14439014      15.14565058      15.14688018      15.14980830      15.15191798      15.15197206      15.15111632      15.14937675      15.14781852      15.14638194      15.14492055      15.14429613
        15.14448010      15.14874196      15.15840527      15.17319204      15.19522533      15.25164494      15.33975187      15.43837273      15.53127273      15.62667583      15.68758445      15.71303509      15.72311384      15.71924873      15.71672337      15.72159489      15.73154574      15.73777837      15.73026381      15.69017479