# File generated by Flopy version 3.6.0 on 06/24/2024 at 10:39:29.
BEGIN options
  PRINT_OPTION  summary
  COMPLEXITY  complex
END options

BEGIN linear
  LINEAR_ACCELERATION  bicgstab
END linear

