# File generated by Flopy version 3.7.0 on 07/05/2024 at 21:27:08.
BEGIN options
END options

BEGIN griddata
  strt
    INTERNAL  FACTOR  1.0
        15.00000000      15.00000000      15.00000000      15.00000000      15.00000000      15.00000000      15.00000000      15.00000000      15.00000000      15.00000000      15.00000000      15.00000000      15.00000000      15.00000000      15.00000000      15.00000000      15.00000000      15.00000000      15.00000000      15.00000000
        15.00000000      15.00000000      15.00000000      15.00000000      15.00000000      15.00000000      15.00000000      15.00000000      15.00000000      15.00000000      15.00000000      15.00000000      15.00000000      15.00000000      15.00000000      15.00000000      15.00000000      15.00000000      15.00000000      15.00000000
        15.00000000      15.00000000      15.00000000      15.00000000      15.00000000      15.00000000      15.00000000      15.00000000      15.00000000      15.00000000      15.00000000      15.00000000      15.00000000      15.00000000      15.00000000      15.00000000      15.00000000      15.00000000      15.00000000      15.00000000
        15.00000000      15.00000000      15.00000000      15.00000000      15.00000000      15.00000000      15.00000000      15.00000000      15.00000000      15.00000000      15.00000000      15.00000000      15.00000000      15.00000000      15.00000000      15.00000000      15.00000000      15.00000000      15.00000000      15.00000000
        15.00000000      15.00000000      15.00000000      15.00000000      15.00000000      15.00000000      15.00000000      15.00000000      15.00000000      15.00000000      15.00000000      15.00000000      15.00000000      15.00000000      15.00000000      15.00000000      15.00000000      15.00000000      15.00000000      15.00000000
        15.02948633      15.02996438      15.03031408      15.02958713      15.02767232      15.02493747      15.02184196      15.01924525      15.01685080      15.01428122      15.01196029      15.01025011      15.00879713      15.00765615      15.00699081      15.00668983      15.00663865      15.00665695      15.00682187      15.00695593
        15.00698049      15.00703781      15.00712052      15.00742458      15.00781108      15.00829566      15.00908148      15.01013243      15.01136378      15.01250131      15.01331913      15.01377610      15.01418096      15.01481567      15.01565553      15.01613469      15.01602023      15.01571036      15.01530016      15.01473899
        15.01421156      15.01328921      15.01212800      15.01112902      15.01039131      15.01006242      15.01014618      15.01072355      15.01169302      15.01256636      15.01322715      15.01337677      15.01322536      15.01279770      15.01225678      15.01172159      15.01181336      15.01240307      15.01261849      15.01229729
        15.01171293      15.01122803      15.01109761      15.01119449      15.01159747      15.01180164      15.01172851      15.01149047      15.01110850      15.01080903      15.01101444      15.01186850      15.01375937      15.01582219      15.01704599      15.01758065      15.01774788      15.01762072      15.01736587      15.01767942
        15.01850864      15.02005371      15.02247297      15.02543775      15.02807730      15.03030343      15.03257559      15.03449688      15.03683490      15.03944388      15.04252962      15.04647608      15.04971355      15.05104989      15.05155272      15.05028859      15.04845027      15.04687120      15.04659393      15.04761320
        15.05344685      15.05349036      15.05269287      15.05039808      15.04646147      15.04193154      15.03743742      15.03329886      15.02954775      15.02564188      15.02189965      15.01900060      15.01687650      15.01541082      15.01455439      15.01425130      15.01429583      15.01444640      15.01451120      15.01446236
        15.01431873      15.01430881      15.01447889      15.01491681      15.01565988      15.01655660      15.01788387      15.01976520      15.02168050      15.02323649      15.02425891      15.02498724      15.02589984      15.02721749      15.02859749      15.02929610      15.02983372      15.03033945      15.03036793      15.03003084
        15.02932901      15.02812487      15.02668862      15.02526990      15.02433013      15.02445518      15.02575435      15.02747801      15.02922804      15.03063308      15.03128186      15.03133644      15.03054623      15.02911584      15.02855375      15.02867115      15.02894563      15.02896371      15.02814843      15.02700488
        15.02631006      15.02630393      15.02675016      15.02761179      15.02844242      15.02906129      15.02902617      15.02892628      15.02918405      15.02978003      15.03108698      15.03286212      15.03499582      15.03644634      15.03698930      15.03700465      15.03643183      15.03545150      15.03468533      15.03553347
        15.03743317      15.03995359      15.04354412      15.04745975      15.05180195      15.05629687      15.06057919      15.06452803      15.06875933      15.07393797      15.07907932      15.08437080      15.08816374      15.08978490      15.09014236      15.08991256      15.09058612      15.09287023      15.09640278      15.09864969
        15.06951581      15.06827841      15.06580940      15.06233324      15.05790413      15.05320292      15.04874521      15.04424089      15.03984052      15.03541991      15.03140055      15.02806976      15.02562315      15.02401739      15.02305525      15.02257330      15.02238082      15.02217626      15.02177860      15.02129826
        15.02100876      15.02106394      15.02134951      15.02188306      15.02283079      15.02432389      15.02634485      15.02871250      15.03091249      15.03255259      15.03387285      15.03514814      15.03664656      15.03843294      15.04032247      15.04199529      15.04385793      15.04550584      15.04674936      15.04774999
        15.04766157      15.04663795      15.04549678      15.04489698      15.04538731      15.04696758      15.04870406      15.05070344      15.05265728      15.05359676      15.05336953      15.05245703      15.05114099      15.05001960      15.04912082      15.04902648      15.04878897      15.04782983      15.04637978      15.04544754
        15.04538767      15.04641649      15.04798406      15.04994267      15.05134464      15.05216735      15.05235589      15.05224681      15.05249186      15.05282228      15.05331810      15.05363469      15.05367427      15.05357098      15.05366126      15.05403461      15.05430044      15.05456793      15.05506627      15.05652848
        15.05875538      15.06144141      15.06538978      15.07073848      15.07669142      15.08211367      15.08753061      15.09320689      15.09908746      15.10525204      15.11046155      15.11390300      15.11699507      15.11995001      15.12348255      15.12781033      15.13289183      15.13849897      15.14276981      15.14490954
        15.07708581      15.07558808      15.07310546      15.06988309      15.06605629      15.06203805      15.05797186      15.05377592      15.04961365      15.04547904      15.04160230      15.03830985      15.03565396      15.03353584      15.03202389      15.03085669      15.02984555      15.02879310      15.02787714      15.02726527
        15.02710877      15.02741800      15.02798792      15.02908825      15.03070996      15.03283035      15.03528080      15.03757703      15.03975392      15.04186007      15.04380919      15.04573949      15.04770770      15.05007276      15.05276979      15.05605046      15.05961474      15.06300635      15.06622039      15.06862845
        15.07002741      15.07033386      15.07136969      15.07295886      15.07452515      15.07617567      15.07674873      15.07750812      15.07804727      15.07771021      15.07662515      15.07487968      15.07308858      15.07197331      15.07083737      15.06970676      15.06828510      15.06673253      15.06579797      15.06569966
        15.06677330      15.06876539      15.07116615      15.07336548      15.07448449      15.07471322      15.07454096      15.07364964      15.07229724      15.07073698      15.06940454      15.06832306      15.06790756      15.06869657      15.07081014      15.07366368      15.07652270      15.07914580      15.08137768      15.08316488
        15.08473498      15.08714833      15.09161866      15.09769342      15.10370079      15.10943307      15.11591011      15.12302957      15.12963852      15.13484540      15.13909444      15.14311003      15.14757331      15.15297950      15.15960436      15.16668626      15.17465830      15.18205857      15.18746481      15.19092427
        15.08226782      15.08097555      15.07911131      15.07673974      15.07366743      15.07027568      15.06682935      15.06324849      15.05983021      15.05644287      15.05310256      15.04999467      15.04693970      15.04390566      15.04125627      15.03899738      15.03712924      15.03563536      15.03448782      15.03406949
        15.03420369      15.03489980      15.03611918      15.03811545      15.04057991      15.04292030      15.04528525      15.04774347      15.05021089      15.05292724      15.05550989      15.05796133      15.06073826      15.06430949      15.06862590      15.07320533      15.07835070      15.08388077      15.08949969      15.09400982
        15.09841105      15.10175057      15.10463247      15.10611560      15.10642565      15.10595558      15.10501187      15.10387708      15.10209145      15.10012706      15.09790050      15.09539867      15.09294257      15.09081705      15.08916382      15.08736121      15.08562617      15.08462681      15.08479041      15.08597297
        15.08808345      15.09060872      15.09266914      15.09396138      15.09416821      15.09313919      15.09127131      15.08895950      15.08641534      15.08420929      15.08284716      15.08271768      15.08438242      15.08848877      15.09442394      15.10045498      15.10603998      15.11028368      15.11297173      15.11475914
        15.11639547      15.11929036      15.12392642      15.12929900      15.13493930      15.14155649      15.14864717      15.15633166      15.16284950      15.16795989      15.17340175      15.18066324      15.18743761      15.19417264      15.20162793      15.21049333      15.22074507      15.22923584      15.23579756      15.23967165
        15.08807574      15.08719015      15.08571342      15.08387765      15.08156446      15.07889018      15.07637136      15.07382077      15.07135760      15.06849841      15.06537667      15.06212109      15.05839662      15.05443599      15.05075291      15.04762139      15.04532105      15.04400104      15.04349920      15.04371401
        15.04447716      15.04605235      15.04826555      15.05058723      15.05309246      15.05531780      15.05789109      15.06111244      15.06410508      15.06738164      15.07064652      15.07457721      15.07912789      15.08472622      15.09129471      15.09858648      15.10594251      15.11342700      15.11988777      15.12541375
        15.13060382      15.13409340      15.13526305      15.13471486      15.13351513      15.13141012      15.12878960      15.12544930      15.12156676      15.11789403      15.11450119      15.11162133      15.10909831      15.10668728      15.10468969      15.10323675      15.10269768      15.10305317      15.10420286      15.10623706
        15.10854348      15.11029577      15.11097564      15.11052884      15.10948573      15.10746378      15.10462216      15.10177647      15.09916053      15.09781141      15.09843164      15.10133908      15.10762978      15.11699267      15.12645156      15.13432984      15.14038457      15.14455650      15.14771096      15.15142761
        15.15583612      15.16055540      15.16455451      15.16890946      15.17499601      15.18283030      15.19163467      15.19997148      15.20744316      15.21538170      15.22415654      15.23292521      15.24132924      15.24955393      15.25849458      15.26765467      15.27537488      15.28077110      15.28488756      15.28662544
        15.09550682      15.09471979      15.09351704      15.09223047      15.09102568      15.08957374      15.08807098      15.08612213      15.08371628      15.08064294      15.07719490      15.07341337      15.06915467      15.06439128      15.06016005      15.05693799      15.05521426      15.05515628      15.05610210      15.05760778
        15.05951120      15.06190389      15.06444371      15.06744703      15.07077215      15.07406629      15.07783525      15.08122394      15.08449359      15.08884802      15.09457740      15.10147358      15.10901568      15.11701899      15.12490695      15.13266080      15.13958168      15.14547609      15.15025282      15.15433287
        15.15719650      15.15857118      15.15796421      15.15629117      15.15391498      15.15040665      15.14592867      15.14108541      15.13616725      15.13179390      15.12797196      15.12521740      15.12307915      15.12126974      15.12026025      15.12037188      15.12115471      15.12194615      15.12306319      15.12412385
        15.12495530      15.12491274      15.12419167      15.12279782      15.12098777      15.11893587      15.11685101      15.11533327      15.11488909      15.11663521      15.12136702      15.12951100      15.14092896      15.15344696      15.16359496      15.17122317      15.17754654      15.18374484      15.19111131      15.20029889
        15.20848885      15.21528823      15.22263363      15.23053621      15.23893310      15.24789096      15.25605114      15.26143717      15.26769189      15.27663694      15.28615188      15.29451405      15.30270002      15.31079075      15.31827955      15.32348484      15.32594130      15.32716451      15.32798023      15.32835760
        15.10465626      15.10392327      15.10311637      15.10256422      15.10241186      15.10198493      15.10092717      15.09885711      15.09635050      15.09320409      15.08938131      15.08504755      15.08042190      15.07536426      15.07115447      15.06887040      15.06915713      15.07154808      15.07451623      15.07725847
        15.08018674      15.08370409      15.08774688      15.09317263      15.09878240      15.10381922      15.10876220      15.11286866      15.11740177      15.12383731      15.13163358      15.13976003      15.14740668      15.15383141      15.15906585      15.16360212      15.16774458      15.17115430      15.17438141      15.17642776
        15.17709275      15.17705935      15.17594989      15.17364042      15.17011632      15.16522694      15.15956993      15.15411834      15.14897851      15.14467169      15.14116642      15.13881635      15.13756186      15.13711900      15.13727407      15.13776717      15.13826275      15.13836661      15.13818054      15.13744287
        15.13653131      15.13560263      15.13454988      15.13344436      15.13225580      15.13154358      15.13193603      15.13395893      15.13852879      15.14514347      15.15497015      15.16778222      15.18185516      15.19459138      15.20505447      15.21572285      15.22755850      15.24034399      15.25536664      15.27114249
        15.28412873      15.29400921      15.30361277      15.31332480      15.32052351      15.32486852      15.32757344      15.32881389      15.33161318      15.33728878      15.34387112      15.35038650      15.35507066      15.35845343      15.36067781      15.36171329      15.36169189      15.36131398      15.36057378      15.36016559
        15.11693739      15.11637243      15.11560145      15.11543033      15.11565768      15.11541359      15.11443314      15.11284517      15.11073453      15.10796043      15.10441484      15.10034099      15.09606790      15.09183843      15.08942320      15.08944451      15.09189325      15.09648617      15.10113132      15.10582589
        15.11072458      15.11782274      15.12538554      15.13233682      15.13832824      15.14381080      15.15007449      15.15546500      15.15966925      15.16476251      15.17047615      15.17572394      15.17963300      15.18247478      15.18470588      15.18666550      15.18872473      15.19062880      15.19217731      15.19276156
        15.19258298      15.19180009      15.19000353      15.18692000      15.18250984      15.17728584      15.17178524      15.16644894      15.16158641      15.15792336      15.15566033      15.15443124      15.15409571      15.15393876      15.15391778      15.15361566      15.15268615      15.15160581      15.15000811      15.14832055
        15.14688256      15.14588934      15.14536273      15.14549057      15.14671085      15.14959795      15.15426030      15.16191457      15.17185610      15.18366456      15.19969844      15.21752231      15.23484496      15.25210168      15.26911093      15.28820801      15.30906372      15.33080166      15.34957807      15.36623259
        15.37763898      15.38429883      15.38837059      15.39056332      15.39112210      15.38924444      15.38653986      15.38479185      15.38469188      15.38691826      15.39003881      15.39225677      15.39259656      15.39152396      15.38964556      15.38820226      15.38739729      15.38704884      15.38615653      15.38540864
        15.13378837      15.13316127      15.13254780      15.13239286      15.13224162      15.13205439      15.13231821      15.13225858      15.13116067      15.12911759      15.12643153      15.12391569      15.12208406      15.12086199      15.12046355      15.12179831      15.12586856      15.13282840      15.13940868      15.14726921
        15.15534391      15.16337010      15.16873775      15.17278604      15.17701229      15.18174620      15.18776801      15.19246990      15.19448070      15.19590408      15.19793036      15.19992680      15.20161354      15.20285808      15.20367143      15.20397826      15.20430294      15.20473005      15.20508988      15.20515781
        15.20453287      15.20296078      15.20037103      15.19675285      15.19232039      15.18746474      15.18273705      15.17852163      15.17499655      15.17256710      15.17137471      15.17084550      15.17067942      15.17029718      15.16931064      15.16798848      15.16609538      15.16400551      15.16191826      15.16003835
        15.15887763      15.15860200      15.15964496      15.16263042      15.16784293      15.17603927      15.18757972      15.20295241      15.21994460      15.24031096      15.26522191      15.29045425      15.31592975      15.34261713      15.36620979      15.38928597      15.41288977      15.43410379      15.44678980      15.45543547
        15.45866269      15.45712152      15.45332945      15.44695014      15.44061332      15.43540626      15.43037656      15.42661888      15.42461468      15.42399078      15.42339348      15.42170511      15.41959523      15.41721467      15.41487117      15.41279695      15.41104951      15.40938263      15.40812937      15.40745262
        15.15394047      15.15406233      15.15465640      15.15561926      15.15714368      15.15850515      15.15988436      15.16065672      15.16126193      15.16139875      15.16160696      15.16294589      15.16501456      15.16594245      15.16547056      15.16548228      15.16781589      15.17450806      15.18142747      15.18714941
        15.19203095      15.19626783      15.19831874      15.20016859      15.20278774      15.20608231      15.21104888      15.21495196      15.21584848      15.21511619      15.21485891      15.21545483      15.21625215      15.21652701      15.21601837      15.21514038      15.21449973      15.21429220      15.21417926      15.21370459
        15.21262712      15.21082167      15.20854669      15.20558025      15.20218040      15.19862242      15.19519602      15.19247014      15.19014007      15.18833456      15.18699923      15.18614515      15.18578310      15.18523054      15.18387833      15.18197286      15.17996716      15.17792679      15.17628888      15.17531042
        15.17541861      15.17722118      15.18127323      15.18858873      15.19994615      15.21616998      15.23644104      15.26000053      15.28728831      15.31735445      15.35023759      15.37955108      15.40691012      15.43532386      15.45829738      15.47854046      15.49665375      15.50915885      15.51295132      15.51258097
        15.50896520      15.50201341      15.49308581      15.48332922      15.47411753      15.46677995      15.46105050      15.45647494      15.45306447      15.45039712      15.44784225      15.44584798      15.44368976      15.44108995      15.43840376      15.43520660      15.43197412      15.42873898      15.42642376      15.42510533
        15.18296417      15.18528902      15.18756066      15.18951438      15.19236599      15.19484275      15.19759515      15.20092889      15.20464238      15.20745339      15.21136864      15.21495926      15.21787977      15.21696715      15.21111992      15.20438965      15.19960174      15.19968843      15.20208348      15.20413237
        15.20657594      15.20981571      15.21187650      15.21330761      15.21518124      15.21792558      15.22265659      15.22629267      15.22684658      15.22499616      15.22316697      15.22238889      15.22197599      15.22129482      15.22019991      15.21917082      15.21857045      15.21847210      15.21855113      15.21828278
        15.21768434      15.21676572      15.21569752      15.21429214      15.21258457      15.21064029      15.20857705      15.20658929      15.20422827      15.20194008      15.20007024      15.19886435      15.19823882      15.19739923      15.19649950      15.19550624      15.19471215      15.19451836      15.19513586      15.19662025
        15.19938212      15.20456340      15.21288062      15.22602232      15.24457129      15.26870428      15.29719154      15.33012361      15.36590574      15.40063531      15.43214666      15.45833223      15.48220894      15.50550441      15.52278312      15.53608122      15.54538658      15.54958258      15.54802014      15.54327743
        15.53630353      15.52759890      15.51749548      15.50702624      15.49777382      15.48971438      15.48315137      15.47806471      15.47423654      15.47129439      15.46898070      15.46704205      15.46433823      15.46065488      15.45644056      15.45195519      15.44751556      15.44360307      15.44052309      15.43868962
        15.22991486      15.23055506      15.23147445      15.23327779      15.23661225      15.24009202      15.24501719      15.25084587      15.25709579      15.26152201      15.26468869      15.26497112      15.26188615      15.25151952      15.23485737      15.21878891      15.20709188      15.20159390      15.20087151      15.20231118
        15.20495797      15.20901447      15.21212772      15.21394831      15.21580481      15.21816876      15.22241700      15.22581247      15.22615768      15.22293469      15.21934080      15.21756597      15.21708022      15.21706926      15.21717734      15.21745018      15.21792549      15.21867566      15.21960294      15.22032210
        15.22081057      15.22106356      15.22120308      15.22109669      15.22063100      15.21970627      15.21823554      15.21631178      15.21392786      15.21145266      15.20947646      15.20825575      15.20780427      15.20792002      15.20867102      15.21026957      15.21279162      15.21629907      15.22106719      15.22639270
        15.23332780      15.24325425      15.25747566      15.27741490      15.30160981      15.33261150      15.36911623      15.40952003      15.44732161      15.47781960      15.50166170      15.52147063      15.53702202      15.55007507      15.55922108      15.56508315      15.56789912      15.56762712      15.56432814      15.55887659
        15.55171301      15.54336448      15.53391441      15.52399455      15.51507250      15.50714428      15.50040582      15.49521742      15.49132851      15.48794779      15.48478361      15.48139704      15.47764597      15.47322870      15.46830972      15.46344629      15.45900574      15.45538973      15.45275932      15.45126890
        15.28979554      15.28765096      15.28670399      15.29008905      15.29474775      15.29922825      15.30512879      15.31005748      15.31317011      15.31188723      15.30576223      15.29483161      15.27891198      15.25668055      15.23231746      15.21256530      15.19851756      15.19013012      15.18680520      15.18688313
        15.18875032      15.19270926      15.19621860      15.19790269      15.19864755      15.19986924      15.20357152      15.20703654      15.20797667      15.20566746      15.20350622      15.20374425      15.20554332      15.20798847      15.21058356      15.21289337      15.21486869      15.21677676      15.21874674      15.22049282
        15.22195774      15.22317088      15.22416342      15.22484859      15.22508489      15.22476171      15.22376791      15.22226767      15.22044225      15.21851178      15.21689943      15.21619992      15.21704695      15.21948313      15.22340797      15.22882346      15.23526012      15.24236374      15.25144135      15.26189016
        15.27478437      15.29106586      15.31143319      15.33669913      15.36628403      15.40320216      15.44354349      15.48165700      15.51177050      15.53309847      15.54719731      15.55609488      15.56132738      15.56658871      15.57061798      15.57320708      15.57414142      15.57327838      15.57021307      15.56552083
        15.55919436      15.55176591      15.54328125      15.53435418      15.52607536      15.51834435      15.51179471      15.50642210      15.50199266      15.49791957      15.49375537      15.48951997      15.48543055      15.48133213      15.47714883      15.47303925      15.46946743      15.46691499      15.46528105      15.46439402
        15.36446691      15.36344470      15.36321908      15.36550327      15.36785584      15.36904330      15.36887293      15.36548016      15.35822279      15.34313993      15.32097013      15.29532176      15.26907247      15.24238575      15.21648895      15.19462520      15.17694578      15.16381988      15.15645599      15.15440737
        15.15489514      15.15701027      15.15957170      15.16112272      15.16176250      15.16376591      15.16835778      15.17378864      15.17823245      15.18094234      15.18332065      15.18711102      15.19202772      15.19733685      15.20224067      15.20645471      15.21004264      15.21325264      15.21637234      15.21920323
        15.22162988      15.22367192      15.22542414      15.22684632      15.22778814      15.22811798      15.22781719      15.22707042      15.22605800      15.22498247      15.22422493      15.22474260      15.22756088      15.23285962      15.24020764      15.24952292      15.26031021      15.27223061      15.28607772      15.30095004
        15.31787666      15.33813080      15.36165718      15.38968351      15.42176475      15.45690887      15.49095505      15.51874831      15.53766316      15.54934143      15.55577494      15.55966824      15.56256195      15.56613878      15.56935487      15.57186167      15.57311020      15.57288137      15.57042067      15.56633548
        15.56084752      15.55441551      15.54698347      15.53899988      15.53147586      15.52404832      15.51737557      15.51186535      15.50713287      15.50282621      15.49872105      15.49479844      15.49116327      15.48783125      15.48482557      15.48236107      15.48036816      15.47883588      15.47768333      15.47682142
        15.45113608      15.44941358      15.44757360      15.44434449      15.43750724      15.42749236      15.41513354      15.39818243      15.37595797      15.34584197      15.31042304      15.27602811      15.24501510      15.21456507      15.18500233      15.15932998      15.13843965      15.12308586      15.11397961      15.11044739
        15.10951818      15.11073000      15.11398307      15.11748663      15.12118987      15.12662512      15.13368333      15.14211383      15.15045896      15.15773048      15.16450257      15.17127517      15.17835997      15.18582649      15.19288964      15.19891224      15.20393768      15.20835007      15.21258865      15.21646107
        15.21988617      15.22300372      15.22571002      15.22796754      15.22977097      15.23106894      15.23181953      15.23210829      15.23203340      15.23194180      15.23228247      15.23404044      15.23872769      15.24697010      15.25846658      15.27224029      15.28709910      15.30216545      15.31833624      15.33505686
        15.35335265      15.37422814      15.39769584      15.42431363      15.45224204      15.47896090      15.50248316      15.52028132      15.53208665      15.54052845      15.54705306      15.55221637      15.55628988      15.56051738      15.56421811      15.56712389      15.56874614      15.56885970      15.56689056      15.56378029
        15.55943577      15.55403391      15.54768522      15.54070634      15.53373040      15.52670481      15.52027579      15.51486914      15.51039316      15.50644431      15.50281567      15.49964798      15.49713152      15.49515584      15.49343093      15.49199148      15.49070483      15.48927894      15.48803601      15.48710892
        15.53026719      15.52492544      15.51520252      15.50234528      15.48394074      15.46140526      15.43553667      15.40393153      15.36581534      15.32386276      15.28077340      15.24034127      15.20500138      15.17184035      15.14183960      15.11725405      15.09890666      15.08548948      15.07671203      15.07277348
        15.07198455      15.07403971      15.07799666      15.08271682      15.08844202      15.09576249      15.10508674      15.11609002      15.12753361      15.13803042      15.14792839      15.15738852      15.16627550      15.17486935      15.18316771      15.19047160      15.19666548      15.20216315      15.20745086      15.21239978