# File generated by Flopy version 3.6.0 on 04/09/2024 at 15:17:51.
BEGIN options
  TIME_UNITS  seconds
END options

BEGIN dimensions
  NPER  2920
END dimensions

BEGIN perioddata
   21600.00000000  1       1.00000000
   21600.00000000  1       1.00000000
   21600.00000000  1       1.00000000
   21600.00000000  1       1.00000000
   21600.00000000  1       1.00000000
   21600.00000000  1       1.00000000
   21600.00000000  1       1.00000000
   21600.00000000  1       1.00000000
   21600.00000000  1       1.00000000
   21600.00000000  1       1.00000000
   21600.00000000  1       1.00000000
   21600.00000000  1       1.00000000
   21600.00000000  1       1.00000000
   21600.00000000  1       1.00000000
   21600.00000000  1       1.00000000
   21600.00000000  1       1.00000000
   21600.00000000  1       1.00000000
   21600.00000000  1       1.00000000
   21600.00000000  1       1.00000000
   21600.00000000  1       1.00000000
   21600.00000000  1       1.00000000
   21600.00000000  1       1.00000000
   21600.00000000  1       1.00000000
   21600.00000000  1       1.00000000
   21600.00000000  1       1.00000000
   21600.00000000  1       1.00000000
   21600.00000000  1       1.00000000
   21600.00000000  1       1.00000000
   21600.00000000  1       1.00000000
   21600.00000000  1       1.00000000
   21600.00000000  1       1.00000000
   21600.00000000  1       1.00000000
   21600.00000000  1       1.00000000
   21600.00000000  1       1.00000000
   21600.00000000  1       1.00000000
   21600.00000000  1       1.00000000
   21600.00000000  1       1.00000000
   21600.00000000  1       1.00000000
   21600.00000000  1       1.00000000
   21600.00000000  1       1.00000000
   21600.00000000  1       1.00000000
   21600.00000000  1       1.00000000
   21600.00000000  1       1.00000000
   21600.00000000  1       1.00000000
   21600.00000000  1       1.00000000
   21600.00000000  1       1.00000000
   21600.00000000  1       1.00000000
   21600.00000000  1       1.00000000
   21600.00000000  1       1.00000000
   21600.00000000  1       1.00000000
   21600.00000000  1       1.00000000
   21600.00000000  1       1.00000000
   21600.00000000  1       1.00000000
   21600.00000000  1       1.00000000
   21600.00000000  1       1.00000000
   21600.00000000  1       1.00000000
   21600.00000000  1       1.00000000
   21600.00000000  1       1.00000000
   21600.00000000  1       1.00000000
   21600.00000000  1       1.00000000
   21600.00000000  1       1.00000000
   21600.00000000  1       1.00000000
   21600.00000000  1       1.00000000
   21600.00000000  1       1.00000000
   21600.00000000  1       1.00000000
   21600.00000000  1       1.00000000
   21600.00000000  1       1.00000000
   21600.00000000  1       1.00000000
   21600.00000000  1       1.00000000
   21600.00000000  1       1.00000000
   21600.00000000  1       1.00000000
   21600.00000000  1       1.00000000
   21600.00000000  1       1.00000000
   21600.00000000  1       1.00000000
   21600.00000000  1       1.00000000
   21600.00000000  1       1.00000000
   21600.00000000  1       1.00000000
   21600.00000000  1       1.00000000
   21600.00000000  1       1.00000000
   21600.00000000  1       1.00000000
   21600.00000000  1       1.00000000
   21600.00000000  1       1.00000000
   21600.00000000  1       1.00000000
   21600.00000000  1       1.00000000
   21600.00000000  1       1.00000000
   21600.00000000  1       1.00000000
   21600.00000000  1       1.00000000
   21600.00000000  1       1.00000000
   21600.00000000  1       1.00000000
   21600.00000000  1       1.00000000
   21600.00000000  1       1.00000000
   21600.00000000  1       1.00000000
   21600.00000000  1       1.00000000
   21600.00000000  1       1.00000000
   21600.00000000  1       1.00000000
   21600.00000000  1       1.00000000
   21600.00000000  1       1.00000000
   21600.00000000  1       1.00000000
   21600.00000000  1       1.00000000
   21600.00000000  1       1.00000000
   21600.00000000  1       1.00000000
   21600.00000000  1       1.00000000
   21600.00000000  1       1.00000000
   21600.00000000  1       1.00000000
   21600.00000000  1       1.00000000
   21600.00000000  1       1.00000000
   21600.00000000  1       1.00000000
   21600.00000000  1       1.00000000
   21600.00000000  1       1.00000000
   21600.00000000  1       1.00000000
   21600.00000000  1       1.00000000
   21600.00000000  1       1.00000000
   21600.00000000  1       1.00000000
   21600.00000000  1       1.00000000
   21600.00000000  1       1.00000000
   21600.00000000  1       1.00000000
   21600.00000000  1       1.00000000
   21600.00000000  1       1.00000000
   21600.00000000  1       1.00000000
   21600.00000000  1       1.00000000
   21600.00000000  1       1.00000000
   21600.00000000  1       1.00000000
   21600.00000000  1       1.00000000
   21600.00000000  1       1.00000000
   21600.00000000  1       1.00000000
   21600.00000000  1       1.00000000
   21600.00000000  1       1.00000000
   21600.00000000  1       1.00000000
   21600.00000000  1       1.00000000
   21600.00000000  1       1.00000000
   21600.00000000  1       1.00000000
   21600.00000000  1       1.00000000
   21600.00000000  1       1.00000000
   21600.00000000  1       1.00000000
   21600.00000000  1       1.00000000
   21600.00000000  1       1.00000000
   21600.00000000  1       1.00000000
   21600.00000000  1       1.00000000
   21600.00000000  1       1.00000000
   21600.00000000  1       1.00000000
   21600.00000000  1       1.00000000
   21600.00000000  1       1.00000000
   21600.00000000  1       1.00000000
   21600.00000000  1       1.00000000
   21600.00000000  1       1.00000000
   21600.00000000  1       1.00000000
   21600.00000000  1       1.00000000
   21600.00000000  1       1.00000000
   21600.00000000  1       1.00000000
   21600.00000000  1       1.00000000
   21600.00000000  1       1.00000000
   21600.00000000  1       1.00000000
   21600.00000000  1       1.00000000
   21600.00000000  1       1.00000000
   21600.00000000  1       1.00000000
   21600.00000000  1       1.00000000
   21600.00000000  1       1.00000000
   21600.00000000  1       1.00000000
   21600.00000000  1       1.00000000
   21600.00000000  1       1.00000000
   21600.00000000  1       1.00000000
   21600.00000000  1       1.00000000
   21600.00000000  1       1.00000000
   21600.00000000  1       1.00000000
   21600.00000000  1       1.00000000
   21600.00000000  1       1.00000000
   21600.00000000  1       1.00000000
   21600.00000000  1       1.00000000
   21600.00000000  1       1.00000000
   21600.00000000  1       1.00000000
   21600.00000000  1       1.00000000
   21600.00000000  1       1.00000000
   21600.00000000  1       1.00000000
   21600.00000000  1       1.00000000
   21600.00000000  1       1.00000000
   21600.00000000  1       1.00000000
   21600.00000000  1       1.00000000
   21600.00000000  1       1.00000000
   21600.00000000  1       1.00000000
   21600.00000000  1       1.00000000
   21600.00000000  1       1.00000000
   21600.00000000  1       1.00000000
   21600.00000000  1       1.00000000
   21600.00000000  1       1.00000000
   21600.00000000  1       1.00000000
   21600.00000000  1       1.00000000
   21600.00000000  1       1.00000000
   21600.00000000  1       1.00000000
   21600.00000000  1       1.00000000
   21600.00000000  1       1.00000000
   21600.00000000  1       1.00000000
   21600.00000000  1       1.00000000
   21600.00000000  1       1.00000000
   21600.00000000  1       1.00000000
   21600.00000000  1       1.00000000
   21600.00000000  1       1.00000000
   21600.00000000  1       1.00000000
   21600.00000000  1       1.00000000
   21600.00000000  1       1.00000000
   21600.00000000  1       1.00000000
   21600.00000000  1       1.00000000
   21600.00000000  1       1.00000000
   21600.00000000  1       1.00000000
   21600.00000000  1       1.00000000
   21600.00000000  1       1.00000000
   21600.00000000  1       1.00000000
   21600.00000000  1       1.00000000
   21600.00000000  1       1.00000000
   21600.00000000  1       1.00000000
   21600.00000000  1       1.00000000
   21600.00000000  1       1.00000000
   21600.00000000  1       1.00000000
   21600.00000000  1       1.00000000
   21600.00000000  1       1.00000000
   21600.00000000  1       1.00000000
   21600.00000000  1       1.00000000
   21600.00000000  1       1.00000000
   21600.00000000  1       1.00000000
   21600.00000000  1       1.00000000
   21600.00000000  1       1.00000000
   21600.00000000  1       1.00000000
   21600.00000000  1       1.00000000
   21600.00000000  1       1.00000000
   21600.00000000  1       1.00000000
   21600.00000000  1       1.00000000
   21600.00000000  1       1.00000000
   21600.00000000  1       1.00000000
   21600.00000000  1       1.00000000
   21600.00000000  1       1.00000000
   21600.00000000  1       1.00000000
   21600.00000000  1       1.00000000
   21600.00000000  1       1.00000000
   21600.00000000  1       1.00000000
   21600.00000000  1       1.00000000
   21600.00000000  1       1.00000000
   21600.00000000  1       1.00000000
   21600.00000000  1       1.00000000
   21600.00000000  1       1.00000000
   21600.00000000  1       1.00000000
   21600.00000000  1       1.00000000
   21600.00000000  1       1.00000000
   21600.00000000  1       1.00000000
   21600.00000000  1       1.00000000
   21600.00000000  1       1.00000000
   21600.00000000  1       1.00000000
   21600.00000000  1       1.00000000
   21600.00000000  1       1.00000000
   21600.00000000  1       1.00000000
   21600.00000000  1       1.00000000
   21600.00000000  1       1.00000000
   21600.00000000  1       1.00000000
   21600.00000000  1       1.00000000
   21600.00000000  1       1.00000000
   21600.00000000  1       1.00000000
   21600.00000000  1       1.00000000
   21600.00000000  1       1.00000000
   21600.00000000  1       1.00000000
   21600.00000000  1       1.00000000
   21600.00000000  1       1.00000000
   21600.00000000  1       1.00000000
   21600.00000000  1       1.00000000
   21600.00000000  1       1.00000000
   21600.00000000  1       1.00000000
   21600.00000000  1       1.00000000
   21600.00000000  1       1.00000000
   21600.00000000  1       1.00000000
   21600.00000000  1       1.00000000
   21600.00000000  1       1.00000000
   21600.00000000  1       1.00000000
   21600.00000000  1       1.00000000
   21600.00000000  1       1.00000000
   21600.00000000  1       1.00000000
   21600.00000000  1       1.00000000
   21600.00000000  1       1.00000000
   21600.00000000  1       1.00000000
   21600.00000000  1       1.00000000
   21600.00000000  1       1.00000000
   21600.00000000  1       1.00000000
   21600.00000000  1       1.00000000
   21600.00000000  1       1.00000000
   21600.00000000  1       1.00000000
   21600.00000000  1       1.00000000
   21600.00000000  1       1.00000000
   21600.00000000  1       1.00000000
   21600.00000000  1       1.00000000
   21600.00000000  1       1.00000000
   21600.00000000  1       1.00000000
   21600.00000000  1       1.00000000
   21600.00000000  1       1.00000000
   21600.00000000  1       1.00000000
   21600.00000000  1       1.00000000
   21600.00000000  1       1.00000000
   21600.00000000  1       1.00000000
   21600.00000000  1       1.00000000
   21600.00000000  1       1.00000000
   21600.00000000  1       1.00000000
   21600.00000000  1       1.00000000
   21600.00000000  1       1.00000000
   21600.00000000  1       1.00000000
   21600.00000000  1       1.00000000
   21600.00000000  1       1.00000000
   21600.00000000  1       1.00000000
   21600.00000000  1       1.00000000
   21600.00000000  1       1.00000000
   21600.00000000  1       1.00000000
   21600.00000000  1       1.00000000
   21600.00000000  1       1.00000000
   21600.00000000  1       1.00000000
   21600.00000000  1       1.00000000
   21600.00000000  1       1.00000000
   21600.00000000  1       1.00000000
   21600.00000000  1       1.00000000
   21600.00000000  1       1.00000000
   21600.00000000  1       1.00000000
   21600.00000000  1       1.00000000
   21600.00000000  1       1.00000000
   21600.00000000  1       1.00000000
   21600.00000000  1       1.00000000
   21600.00000000  1       1.00000000
   21600.00000000  1       1.00000000
   21600.00000000  1       1.00000000
   21600.00000000  1       1.00000000
   21600.00000000  1       1.00000000
   21600.00000000  1       1.00000000
   21600.00000000  1       1.00000000
   21600.00000000  1       1.00000000
   21600.00000000  1       1.00000000
   21600.00000000  1       1.00000000
   21600.00000000  1       1.00000000
   21600.00000000  1       1.00000000
   21600.00000000  1       1.00000000
   21600.00000000  1       1.00000000
   21600.00000000  1       1.00000000
   21600.00000000  1       1.00000000
   21600.00000000  1       1.00000000
   21600.00000000  1       1.00000000
   21600.00000000  1       1.00000000
   21600.00000000  1       1.00000000
   21600.00000000  1       1.00000000
   21600.00000000  1       1.00000000
   21600.00000000  1       1.00000000
   21600.00000000  1       1.00000000
   21600.00000000  1       1.00000000
   21600.00000000  1       1.00000000
   21600.00000000  1       1.00000000
   21600.00000000  1       1.00000000
   21600.00000000  1       1.00000000
   21600.00000000  1       1.00000000
   21600.00000000  1       1.00000000
   21600.00000000  1       1.00000000
   21600.00000000  1       1.00000000
   21600.00000000  1       1.00000000
   21600.00000000  1       1.00000000
   21600.00000000  1       1.00000000
   21600.00000000  1       1.00000000
   21600.00000000  1       1.00000000
   21600.00000000  1       1.00000000
   21600.00000000  1       1.00000000
   21600.00000000  1       1.00000000
   21600.00000000  1       1.00000000
   21600.00000000  1       1.00000000
   21600.00000000  1       1.00000000
   21600.00000000  1       1.00000000
   21600.00000000  1       1.00000000
   21600.00000000  1       1.00000000
   21600.00000000  1       1.00000000
   21600.00000000  1       1.00000000
   21600.00000000  1       1.00000000
   21600.00000000  1       1.00000000
   21600.00000000  1       1.00000000
   21600.00000000  1       1.00000000
   21600.00000000  1       1.00000000
   21600.00000000  1       1.00000000
   21600.00000000  1       1.00000000
   21600.00000000  1       1.00000000
   21600.00000000  1       1.00000000
   21600.00000000  1       1.00000000
   21600.00000000  1       1.00000000
   21600.00000000  1       1.00000000
   21600.00000000  1       1.00000000
   21600.00000000  1       1.00000000
   21600.00000000  1       1.00000000
   21600.00000000  1       1.00000000
   21600.00000000  1       1.00000000
   21600.00000000  1       1.00000000
   21600.00000000  1       1.00000000
   21600.00000000  1       1.00000000
   21600.00000000  1       1.00000000
   21600.00000000  1       1.00000000
   21600.00000000  1       1.00000000
   21600.00000000  1       1.00000000
   21600.00000000  1       1.00000000
   21600.00000000  1       1.00000000
   21600.00000000  1       1.00000000
   21600.00000000  1       1.00000000
   21600.00000000  1       1.00000000
   21600.00000000  1       1.00000000
   21600.00000000  1       1.00000000
   21600.00000000  1       1.00000000
   21600.00000000  1       1.00000000
   21600.00000000  1       1.00000000
   21600.00000000  1       1.00000000
   21600.00000000  1       1.00000000
   21600.00000000  1       1.00000000
   21600.00000000  1       1.00000000
   21600.00000000  1       1.00000000
   21600.00000000  1       1.00000000
   21600.00000000  1       1.00000000
   21600.00000000  1       1.00000000
   21600.00000000  1       1.00000000
   21600.00000000  1       1.00000000
   21600.00000000  1       1.00000000
   21600.00000000  1       1.00000000
   21600.00000000  1       1.00000000
   21600.00000000  1       1.00000000
   21600.00000000  1       1.00000000
   21600.00000000  1       1.00000000
   21600.00000000  1       1.00000000
   21600.00000000  1       1.00000000
   21600.00000000  1       1.00000000
   21600.00000000  1       1.00000000
   21600.00000000  1       1.00000000
   21600.00000000  1       1.00000000
   21600.00000000  1       1.00000000
   21600.00000000  1       1.00000000
   21600.00000000  1       1.00000000
   21600.00000000  1       1.00000000
   21600.00000000  1       1.00000000
   21600.00000000  1       1.00000000
   21600.00000000  1       1.00000000
   21600.00000000  1       1.00000000
   21600.00000000  1       1.00000000
   21600.00000000  1       1.00000000
   21600.00000000  1       1.00000000
   21600.00000000  1       1.00000000
   21600.00000000  1       1.00000000
   21600.00000000  1       1.00000000
   21600.00000000  1       1.00000000
   21600.00000000  1       1.00000000
   21600.00000000  1       1.00000000
   21600.00000000  1       1.00000000
   21600.00000000  1       1.00000000
   21600.00000000  1       1.00000000
   21600.00000000  1       1.00000000
   21600.00000000  1       1.00000000
   21600.00000000  1       1.00000000
   21600.00000000  1       1.00000000
   21600.00000000  1       1.00000000
   21600.00000000  1       1.00000000
   21600.00000000  1       1.00000000
   21600.00000000  1       1.00000000
   21600.00000000  1       1.00000000
   21600.00000000  1       1.00000000
   21600.00000000  1       1.00000000
   21600.00000000  1       1.00000000
   21600.00000000  1       1.00000000
   21600.00000000  1       1.00000000
   21600.00000000  1       1.00000000
   21600.00000000  1       1.00000000
   21600.00000000  1       1.00000000
   21600.00000000  1       1.00000000
   21600.00000000  1       1.00000000
   21600.00000000  1       1.00000000
   21600.00000000  1       1.00000000
   21600.00000000  1       1.00000000
   21600.00000000  1       1.00000000
   21600.00000000  1       1.00000000
   21600.00000000  1       1.00000000
   21600.00000000  1       1.00000000
   21600.00000000  1       1.00000000
   21600.00000000  1       1.00000000
   21600.00000000  1       1.00000000
   21600.00000000  1       1.00000000
   21600.00000000  1       1.00000000
   21600.00000000  1       1.00000000
   21600.00000000  1       1.00000000
   21600.00000000  1       1.00000000
   21600.00000000  1       1.00000000
   21600.00000000  1       1.00000000
   21600.00000000  1       1.00000000
   21600.00000000  1       1.00000000
   21600.00000000  1       1.00000000
   21600.00000000  1       1.00000000
   21600.00000000  1       1.00000000
   21600.00000000  1       1.00000000
   21600.00000000  1       1.00000000
   21600.00000000  1       1.00000000
   21600.00000000  1       1.00000000
   21600.00000000  1       1.00000000
   21600.00000000  1       1.00000000
   21600.00000000  1       1.00000000
   21600.00000000  1       1.00000000
   21600.00000000  1       1.00000000
   21600.00000000  1       1.00000000
   21600.00000000  1       1.00000000
   21600.00000000  1       1.00000000
   21600.00000000  1       1.00000000
   21600.00000000  1       1.00000000
   21600.00000000  1       1.00000000
   21600.00000000  1       1.00000000
   21600.00000000  1       1.00000000
   21600.00000000  1       1.00000000
   21600.00000000  1       1.00000000
   21600.00000000  1       1.00000000
   21600.00000000  1       1.00000000
   21600.00000000  1       1.00000000
   21600.00000000  1       1.00000000
   21600.00000000  1       1.00000000
   21600.00000000  1       1.00000000
   21600.00000000  1       1.00000000
   21600.00000000  1       1.00000000
   21600.00000000  1       1.00000000
   21600.00000000  1       1.00000000
   21600.00000000  1       1.00000000
   21600.00000000  1       1.00000000
   21600.00000000  1       1.00000000
   21600.00000000  1       1.00000000
   21600.00000000  1       1.00000000
   21600.00000000  1       1.00000000
   21600.00000000  1       1.00000000
   21600.00000000  1       1.00000000
   21600.00000000  1       1.00000000
   21600.00000000  1       1.00000000
   21600.00000000  1       1.00000000
   21600.00000000  1       1.00000000
   21600.00000000  1       1.00000000
   21600.00000000  1       1.00000000
   21600.00000000  1       1.00000000
   21600.00000000  1       1.00000000
   21600.00000000  1       1.00000000
   21600.00000000  1       1.00000000
   21600.00000000  1       1.00000000
   21600.00000000  1       1.00000000
   21600.00000000  1       1.00000000
   21600.00000000  1       1.00000000
   21600.00000000  1       1.00000000
   21600.00000000  1       1.00000000
   21600.00000000  1       1.00000000
   21600.00000000  1       1.00000000
   21600.00000000  1       1.00000000
   21600.00000000  1       1.00000000
   21600.00000000  1       1.00000000
   21600.00000000  1       1.00000000
   21600.00000000  1       1.00000000
   21600.00000000  1       1.00000000
   21600.00000000  1       1.00000000
   21600.00000000  1       1.00000000
   21600.00000000  1       1.00000000
   21600.00000000  1       1.00000000
   21600.00000000  1       1.00000000
   21600.00000000  1       1.00000000
   21600.00000000  1       1.00000000
   21600.00000000  1       1.00000000
   21600.00000000  1       1.00000000
   21600.00000000  1       1.00000000
   21600.00000000  1       1.00000000
   21600.00000000  1       1.00000000
   21600.00000000  1       1.00000000
   21600.00000000  1       1.00000000
   21600.00000000  1       1.00000000
   21600.00000000  1       1.00000000
   21600.00000000  1       1.00000000
   21600.00000000  1       1.00000000
   21600.00000000  1       1.00000000
   21600.00000000  1       1.00000000
   21600.00000000  1       1.00000000
   21600.00000000  1       1.00000000
   21600.00000000  1       1.00000000
   21600.00000000  1       1.00000000
   21600.00000000  1       1.00000000
   21600.00000000  1       1.00000000
   21600.00000000  1       1.00000000
   21600.00000000  1       1.00000000
   21600.00000000  1       1.00000000
   21600.00000000  1       1.00000000
   21600.00000000  1       1.00000000
   21600.00000000  1       1.00000000
   21600.00000000  1       1.00000000
   21600.00000000  1       1.00000000
   21600.00000000  1       1.00000000
   21600.00000000  1       1.00000000
   21600.00000000  1       1.00000000
   21600.00000000  1       1.00000000
   21600.00000000  1       1.00000000
   21600.00000000  1       1.00000000
   21600.00000000  1       1.00000000
   21600.00000000  1       1.00000000
   21600.00000000  1       1.00000000
   21600.00000000  1       1.00000000
   21600.00000000  1       1.00000000
   21600.00000000  1       1.00000000
   21600.00000000  1       1.00000000
   21600.00000000  1       1.00000000
   21600.00000000  1       1.00000000
   21600.00000000  1       1.00000000
   21600.00000000  1       1.00000000
   21600.00000000  1       1.00000000
   21600.00000000  1       1.00000000
   21600.00000000  1       1.00000000
   21600.00000000  1       1.00000000
   21600.00000000  1       1.00000000
   21600.00000000  1       1.00000000
   21600.00000000  1       1.00000000
   21600.00000000  1       1.00000000
   21600.00000000  1       1.00000000
   21600.00000000  1       1.00000000
   21600.00000000  1       1.00000000
   21600.00000000  1       1.00000000
   21600.00000000  1       1.00000000
   21600.00000000  1       1.00000000
   21600.00000000  1       1.00000000
   21600.00000000  1       1.00000000
   21600.00000000  1       1.00000000
   21600.00000000  1       1.00000000
   21600.00000000  1       1.00000000
   21600.00000000  1       1.00000000
   21600.00000000  1       1.00000000
   21600.00000000  1       1.00000000
   21600.00000000  1       1.00000000
   21600.00000000  1       1.00000000
   21600.00000000  1       1.00000000
   21600.00000000  1       1.00000000
   21600.00000000  1       1.00000000
   21600.00000000  1       1.00000000
   21600.00000000  1       1.00000000
   21600.00000000  1       1.00000000
   21600.00000000  1       1.00000000
   21600.00000000  1       1.00000000
   21600.00000000  1       1.00000000
   21600.00000000  1       1.00000000
   21600.00000000  1       1.00000000
   21600.00000000  1       1.00000000
   21600.00000000  1       1.00000000
   21600.00000000  1       1.00000000
   21600.00000000  1       1.00000000
   21600.00000000  1       1.00000000
   21600.00000000  1       1.00000000
   21600.00000000  1       1.00000000
   21600.00000000  1       1.00000000
   21600.00000000  1       1.00000000
   21600.00000000  1       1.00000000
   21600.00000000  1       1.00000000
   21600.00000000  1       1.00000000
   21600.00000000  1       1.00000000
   21600.00000000  1       1.00000000
   21600.00000000  1       1.00000000
   21600.00000000  1       1.00000000
   21600.00000000  1       1.00000000
   21600.00000000  1       1.00000000
   21600.00000000  1       1.00000000
   21600.00000000  1       1.00000000
   21600.00000000  1       1.00000000
   21600.00000000  1       1.00000000
   21600.00000000  1       1.00000000
   21600.00000000  1       1.00000000
   21600.00000000  1       1.00000000
   21600.00000000  1       1.00000000
   21600.00000000  1       1.00000000
   21600.00000000  1       1.00000000
   21600.00000000  1       1.00000000
   21600.00000000  1       1.00000000
   21600.00000000  1       1.00000000
   21600.00000000  1       1.00000000
   21600.00000000  1       1.00000000
   21600.00000000  1       1.00000000
   21600.00000000  1       1.00000000
   21600.00000000  1       1.00000000
   21600.00000000  1       1.00000000
   21600.00000000  1       1.00000000
   21600.00000000  1       1.00000000
   21600.00000000  1       1.00000000
   21600.00000000  1       1.00000000
   21600.00000000  1       1.00000000
   21600.00000000  1       1.00000000
   21600.00000000  1       1.00000000
   21600.00000000  1       1.00000000
   21600.00000000  1       1.00000000
   21600.00000000  1       1.00000000
   21600.00000000  1       1.00000000
   21600.00000000  1       1.00000000
   21600.00000000  1       1.00000000
   21600.00000000  1       1.00000000
   21600.00000000  1       1.00000000
   21600.00000000  1       1.00000000
   21600.00000000  1       1.00000000
   21600.00000000  1       1.00000000
   21600.00000000  1       1.00000000
   21600.00000000  1       1.00000000
   21600.00000000  1       1.00000000
   21600.00000000  1       1.00000000
   21600.00000000  1       1.00000000
   21600.00000000  1       1.00000000
   21600.00000000  1       1.00000000
   21600.00000000  1       1.00000000
   21600.00000000  1       1.00000000
   21600.00000000  1       1.00000000
   21600.00000000  1       1.00000000
   21600.00000000  1       1.00000000
   21600.00000000  1       1.00000000
   21600.00000000  1       1.00000000
   21600.00000000  1       1.00000000
   21600.00000000  1       1.00000000
   21600.00000000  1       1.00000000
   21600.00000000  1       1.00000000
   21600.00000000  1       1.00000000
   21600.00000000  1       1.00000000
   21600.00000000  1       1.00000000
   21600.00000000  1       1.00000000
   21600.00000000  1       1.00000000
   21600.00000000  1       1.00000000
   21600.00000000  1       1.00000000
   21600.00000000  1       1.00000000
   21600.00000000  1       1.00000000
   21600.00000000  1       1.00000000
   21600.00000000  1       1.00000000
   21600.00000000  1       1.00000000
   21600.00000000  1       1.00000000
   21600.00000000  1       1.00000000
   21600.00000000  1       1.00000000
   21600.00000000  1       1.00000000
   21600.00000000  1       1.00000000
   21600.00000000  1       1.00000000
   21600.00000000  1       1.00000000
   21600.00000000  1       1.00000000
   21600.00000000  1       1.00000000
   21600.00000000  1       1.00000000
   21600.00000000  1       1.00000000
   21600.00000000  1       1.00000000
   21600.00000000  1       1.00000000
   21600.00000000  1       1.00000000
   21600.00000000  1       1.00000000
   21600.00000000  1       1.00000000
   21600.00000000  1       1.00000000
   21600.00000000  1       1.00000000
   21600.00000000  1       1.00000000
   21600.00000000  1       1.00000000
   21600.00000000  1       1.00000000
   21600.00000000  1       1.00000000
   21600.00000000  1       1.00000000
   21600.00000000  1       1.00000000
   21600.00000000  1       1.00000000
   21600.00000000  1       1.00000000
   21600.00000000  1       1.00000000
   21600.00000000  1       1.00000000
   21600.00000000  1       1.00000000
   21600.00000000  1       1.00000000
   21600.00000000  1       1.00000000
   21600.00000000  1       1.00000000
   21600.00000000  1       1.00000000
   21600.00000000  1       1.00000000
   21600.00000000  1       1.00000000
   21600.00000000  1       1.00000000
   21600.00000000  1       1.00000000
   21600.00000000  1       1.00000000
   21600.00000000  1       1.00000000
   21600.00000000  1       1.00000000
   21600.00000000  1       1.00000000
   21600.00000000  1       1.00000000
   21600.00000000  1       1.00000000
   21600.00000000  1       1.00000000
   21600.00000000  1       1.00000000
   21600.00000000  1       1.00000000
   21600.00000000  1       1.00000000
   21600.00000000  1       1.00000000
   21600.00000000  1       1.00000000
   21600.00000000  1       1.00000000
   21600.00000000  1       1.00000000
   21600.00000000  1       1.00000000
   21600.00000000  1       1.00000000
   21600.00000000  1       1.00000000
   21600.00000000  1       1.00000000
   21600.00000000  1       1.00000000
   21600.00000000  1       1.00000000
   21600.00000000  1       1.00000000
   21600.00000000  1       1.00000000
   21600.00000000  1       1.00000000
   21600.00000000  1       1.00000000
   21600.00000000  1       1.00000000
   21600.00000000  1       1.00000000
   21600.00000000  1       1.00000000
   21600.00000000  1       1.00000000
   21600.00000000  1       1.00000000
   21600.00000000  1       1.00000000
   21600.00000000  1       1.00000000