# File generated by Flopy version 3.6.0 on 10/29/2024 at 13:38:07.
BEGIN griddata
  strt
    INTERNAL  FACTOR  1.0
        15.00000000      15.00000000      15.00000000      15.00000000      15.00000000      15.00000000      15.00000000      15.00000000      15.00000000      15.00000000      15.00000000      15.00000000      15.00000000      15.00000000      15.00000000      15.00000000      15.00000000      15.00000000      15.00000000      15.00000000
        15.00000000      15.00000000      15.00000000      15.00000000      15.00000000      15.00000000      15.00000000      15.00000000      15.00000000      15.00000000      15.00000000      15.00000000      15.00000000      15.00000000      15.00000000      15.00000000      15.00000000      15.00000000      15.00000000      15.00000000
        15.00000000      15.00000000      15.00000000      15.00000000      15.00000000      15.00000000      15.00000000      15.00000000      15.00000000      15.00000000      15.00000000      15.00000000      15.00000000      15.00000000      15.00000000      15.00000000      15.00000000      15.00000000      15.00000000      15.00000000
        15.00000000      15.00000000      15.00000000      15.00000000      15.00000000      15.00000000      15.00000000      15.00000000      15.00000000      15.00000000      15.00000000      15.00000000      15.00000000      15.00000000      15.00000000      15.00000000      15.00000000      15.00000000      15.00000000      15.00000000
        15.00000000      15.00000000      15.00000000      15.00000000      15.00000000      15.00000000      15.00000000      15.00000000      15.00000000      15.00000000      15.00000000      15.00000000      15.00000000      15.00000000      15.00000000      15.00000000      15.00000000      15.00000000      15.00000000      15.00000000
        15.11886478      15.11822259      15.11782568      15.11703417      15.11380388      15.10806212      15.09877697      15.08977164      15.08081505      15.07073205      15.06222347      15.05370676      15.04665680      15.04217257      15.03858487      15.03342666      15.02713797      15.02078220      15.01574128      15.01221559
        15.00937427      15.00732645      15.00606238      15.00541035      15.00498909      15.00473568      15.00462193      15.00460968      15.00469519      15.00480183      15.00484214      15.00486698      15.00481039      15.00471652      15.00469035      15.00472787      15.00474305      15.00490075      15.00510062      15.00541645
        15.00591858      15.00648760      15.00711881      15.00796497      15.00890381      15.00969524      15.01048288      15.01145072      15.01253847      15.01347224      15.01412107      15.01479961      15.01566320      15.01665595      15.01761720      15.01851958      15.01940711      15.02078075      15.02270825      15.02470254
        15.02704767      15.03026322      15.03355461      15.03614481      15.03705063      15.03656322      15.03562688      15.03429966      15.03196366      15.02892706      15.02641829      15.02410681      15.02213098      15.02111114      15.02038937      15.01994141      15.02030342      15.02110325      15.02206892      15.02307823
        15.02351212      15.02263903      15.02127316      15.01922934      15.01743774      15.01633004      15.01589421      15.01579457      15.01544696      15.01526325      15.01504360      15.01503975      15.01544208      15.01588425      15.01662579      15.01759930      15.01823521      15.01853799      15.01870824      15.01850589
        15.22479226      15.22344163      15.22061977      15.21857197      15.21570628      15.20808499      15.19266808      15.17536423      15.15918731      15.14161328      15.12463595      15.10960946      15.09626064      15.08613509      15.07827742      15.06874288      15.05710822      15.04517333      15.03438734      15.02644295
        15.02044865      15.01614113      15.01336471      15.01179255      15.01086433      15.01024133      15.00993928      15.00987428      15.00998754      15.01019666      15.01032576      15.01041513      15.01037864      15.01017583      15.00998053      15.01005639      15.01019893      15.01046910      15.01094912      15.01154723
        15.01235536      15.01349037      15.01471995      15.01609915      15.01775945      15.01929231      15.02084083      15.02257387      15.02443122      15.02590313      15.02691517      15.02809807      15.02965680      15.03138332      15.03319646      15.03490669      15.03669471      15.03917916      15.04280279      15.04700829
        15.05151620      15.05662083      15.06182810      15.06618191      15.06875459      15.06866521      15.06737576      15.06571714      15.06251174      15.05830276      15.05409751      15.05001674      15.04639692      15.04410298      15.04278064      15.04209043      15.04244702      15.04315633      15.04415927      15.04551499
        15.04623394      15.04548388      15.04364020      15.04082320      15.03751950      15.03481447      15.03315729      15.03262371      15.03215513      15.03161252      15.03110127      15.03073722      15.03116739      15.03183970      15.03298453      15.03464949      15.03600757      15.03689637      15.03723868      15.03714680
        15.31817029      15.31707835      15.31285800      15.30979221      15.30651451      15.29834218      15.28099479      15.25787542      15.23556959      15.21308900      15.19005817      15.16948242      15.15121983      15.13493953      15.12194056      15.10817125      15.09108374      15.07347773      15.05720016      15.04393034
        15.03404323      15.02691066      15.02237744      15.01958200      15.01795398      15.01688593      15.01620419      15.01601456      15.01616880      15.01643375      15.01666988      15.01677086      15.01674039      15.01648762      15.01619591      15.01620547      15.01650957      15.01692602      15.01760175      15.01840211
        15.01937287      15.02078173      15.02241255      15.02421955      15.02631985      15.02860132      15.03092155      15.03322138      15.03541221      15.03717391      15.03858277      15.04012489      15.04208164      15.04443622      15.04698918      15.04946923      15.05219710      15.05589058      15.06085769      15.06689137
        15.07305695      15.07951961      15.08629802      15.09216406      15.09642375      15.09772497      15.09698774      15.09539610      15.09245408      15.08782009      15.08230637      15.07702515      15.07188162      15.06808422      15.06598839      15.06512172      15.06529292      15.06556358      15.06609870      15.06721448
        15.06797703      15.06758881      15.06575708      15.06284999      15.05869811      15.05466348      15.05181710      15.05039433      15.04972408      15.04898439      15.04820899      15.04754509      15.04770609      15.04840961      15.04971736      15.05150239      15.05332934      15.05463571      15.05514362      15.05537754
        15.40062463      15.40068345      15.39795026      15.39535512      15.39120925      15.38133158      15.36215812      15.33590636      15.30921833      15.28392689      15.25880571      15.23464225      15.21231414      15.19161637      15.17284349      15.15470124      15.13186293      15.10736935      15.08540159      15.06615714
        15.05114018      15.04046898      15.03360745      15.02931614      15.02671435      15.02510938      15.02400942      15.02349285      15.02348151      15.02376915      15.02414862      15.02421112      15.02408802      15.02384186      15.02355925      15.02345866      15.02377592      15.02433610      15.02501607      15.02587154
        15.02696276      15.02847262      15.03037374      15.03242123      15.03482991      15.03770406      15.04063493      15.04318972      15.04547431      15.04745702      15.04920280      15.05106398      15.05339361      15.05631601      15.05954207      15.06277017      15.06658850      15.07148914      15.07737999      15.08437969
        15.09204242      15.10009935      15.10827673      15.11576167      15.12157209      15.12474557      15.12524752      15.12446113      15.12221387      15.11769259      15.11113561      15.10448074      15.09802856      15.09289233      15.08968115      15.08823324      15.08788086      15.08766123      15.08761695      15.08807019
        15.08871296      15.08850744      15.08706049      15.08422904      15.08004163      15.07529550      15.07166712      15.06915490      15.06787764      15.06724957      15.06672870      15.06620109      15.06607176      15.06645560      15.06722066      15.06857260      15.07041777      15.07193559      15.07275283      15.07326049
        15.47524493      15.47541391      15.47528089      15.47333959      15.46852143      15.45702313      15.43699021      15.40905259      15.38004369      15.35294626      15.32721773      15.30158673      15.27618514      15.25335932      15.23063360      15.20808860      15.18033939      15.14878052      15.11995928      15.09451357
        15.07300910      15.05745667      15.04758893      15.04131040      15.03739660      15.03506365      15.03358698      15.03270043      15.03238293      15.03250233      15.03292618      15.03294670      15.03260672      15.03230965      15.03206907      15.03191530      15.03214087      15.03267291      15.03326640      15.03399519
        15.03509128      15.03668723      15.03873419      15.04095676      15.04357242      15.04671575      15.04983269      15.05244952      15.05484073      15.05697345      15.05903776      15.06128200      15.06407381      15.06754116      15.07141335      15.07540893      15.08032294      15.08622715      15.09288513      15.10059699
        15.10942449      15.11887074      15.12854896      15.13766684      15.14530625      15.15012007      15.15233333      15.15298764      15.15188882      15.14817397      15.14135343      15.13331585      15.12552170      15.11893662      15.11424425      15.11157420      15.11047644      15.10976498      15.10922630      15.10899412
        15.10914250      15.10915490      15.10835535      15.10603649      15.10209955      15.09738381      15.09289262      15.08938523      15.08725883      15.08664188      15.08661213      15.08647729      15.08626104      15.08617685      15.08603439      15.08654499      15.08792416      15.08956272      15.09077182      15.09121349
        15.54015027      15.54049228      15.54131096      15.53963005      15.53416563      15.52235979      15.50361004      15.47699694      15.44736109      15.41824313      15.39123022      15.36563954      15.33893869      15.31457732      15.29105195      15.26539793      15.23435015      15.19774303      15.16207669      15.13005853
        15.10164237      15.07936586      15.06517260      15.05630870      15.05064485      15.04725505      15.04532945      15.04415110      15.04354916      15.04334841      15.04360559      15.04346821      15.04277407      15.04224722      15.04190469      15.04166786      15.04185412      15.04231502      15.04284390      15.04340029
        15.04434889      15.04584354      15.04786848      15.05024537      15.05293357      15.05600768      15.05885914      15.06146828      15.06383071      15.06605722      15.06852650      15.07122939      15.07444694      15.07831848      15.08266466      15.08749438      15.09344067      15.10049525      15.10806934      15.11636584
        15.12571117      15.13614401      15.14718855      15.15819031      15.16784984      15.17498582      15.17947878      15.18210172      15.18282192      15.18034257      15.17405532      15.16446493      15.15506925      15.14712108      15.14072044      15.13620812      15.13409053      15.13301702      15.13210064      15.13140012
        15.13082231      15.13064660      15.13050943      15.12931636      15.12595230      15.12133326      15.11603435      15.11137561      15.10813697      15.10710603      15.10733231      15.10765775      15.10759760      15.10720588      15.10659344      15.10610827      15.10652189      15.10796687      15.10935463      15.10991865
        15.59595771      15.59653660      15.59708773      15.59508267      15.58962220      15.57885665      15.56090828      15.53655382      15.50827165      15.47836089      15.44928616      15.42328625      15.39768732      15.37210306      15.34890306      15.32323182      15.29098217      15.25199108      15.21150202      15.17311205
        15.13795119      15.10819400      15.08773473      15.07515438      15.06724230      15.06234048      15.05951706      15.05795389      15.05718550      15.05681009      15.05667032      15.05615327      15.05503574      15.05391562      15.05333839      15.05292867      15.05298072      15.05333945      15.05380153      15.05428844
        15.05498478      15.05611331      15.05788500      15.06019060      15.06289456      15.06568804      15.06819064      15.07062310      15.07283496      15.07520563      15.07784779      15.08086144      15.08435904      15.08853043      15.09317661      15.09875692      15.10575650      15.11378865      15.12211276      15.13086415
        15.14057249      15.15164065      15.16374414      15.17639645      15.18819513      15.19866493      15.20616448      15.21143075      15.21479625      15.21420125      15.20918480      15.19906241      15.18692696      15.17702151      15.16894484      15.16260240      15.15896454      15.15741643      15.15617073      15.15505891
        15.15388494      15.15341950      15.15368693      15.15344788      15.15146055      15.14702782      15.14129114      15.13539932      15.13079186      15.12865330      15.12869851      15.12934524      15.12958909      15.12919363      15.12848588      15.12732656      15.12668602      15.12724462      15.12860710      15.12938788
        15.64582979      15.64550895      15.64498948      15.64238950      15.63736673      15.62768778      15.61050255      15.58705797      15.56022455      15.53169731      15.50233596      15.47475455      15.45024745      15.42480779      15.40099710      15.37663226      15.34604186      15.30719352      15.26478011      15.22253738
        15.18168964      15.14474317      15.11661392      15.09881252      15.08753401      15.08067453      15.07632597      15.07390765      15.07296237      15.07257064      15.07198186      15.07110075      15.06959623      15.06782120      15.06683748      15.06613321      15.06573320      15.06571619      15.06594089      15.06628443
        15.06666266      15.06736471      15.06862354      15.07055307      15.07311473      15.07561605      15.07782607      15.07990133      15.08203342      15.08439680      15.08699467      15.09010396      15.09382842      15.09824351      15.10316992      15.10931849      15.11697174      15.12548812      15.13416533      15.14325417
        15.15339167      15.16502584      15.17810762      15.19218763      15.20643952      15.21988156      15.23085820      15.23953827      15.24649190      15.24924318      15.24652076      15.23771516      15.22334761      15.20990508      15.19958141      15.19118726      15.18556300      15.18268434      15.18103184      15.17917844
        15.17772342      15.17744402      15.17795603      15.17802664      15.17677756      15.17327305      15.16777847      15.16142114      15.15591586      15.15229695      15.15163993      15.15218453      15.15253599      15.15208249      15.15095960      15.14935083      15.14808652      15.14743797      15.14824950      15.14911983
        15.68953151      15.68846062      15.68684522      15.68385765      15.67913206      15.66981747      15.65419451      15.63145678      15.60533618      15.57806827      15.55021118      15.52200101      15.49661372      15.47179658      15.44724184      15.42330363      15.39543340      15.35956054      15.31756342      15.27409088
        15.23045448      15.18786050      15.15227957      15.12776854      15.11183910      15.10205567      15.09589245      15.09203623      15.09040062      15.08986312      15.08915308      15.08821390      15.08673811      15.08468155      15.08302144      15.08203693      15.08099373      15.08017784      15.07969436      15.07959604
        15.07956818      15.07966290      15.08033891      15.08166410      15.08380335      15.08591254      15.08768365      15.08944976      15.09150318      15.09372860      15.09634065      15.09940967      15.10328706      15.10791631      15.11311309      15.11955902      15.12728589      15.13569170      15.14438884      15.15380089
        15.16441052      15.17659320      15.19069790      15.20629891      15.22283756      15.23895606      15.25337937      15.26621635      15.27747887      15.28463783      15.28528416      15.27908962      15.26509766      15.24769044      15.23354547      15.22262615      15.21465317      15.20969372      15.20693233      15.20412760
        15.20243773      15.20220415      15.20253879      15.20256457      15.20129014      15.19871693      15.19417260      15.18831319      15.18234683      15.17787731      15.17613993      15.17636813      15.17627375      15.17543001      15.17371408      15.17162229      15.16968275      15.16802588      15.16760941      15.16800680
        15.72872190      15.72728136      15.72547207      15.72243976      15.71723143      15.70850267      15.69484229      15.67410609      15.64890607      15.62190825      15.59522070      15.56800159      15.54070013      15.51511708      15.48978899      15.46516844      15.43891927      15.40731500      15.36856751      15.32606885
        15.28181640      15.23594053      15.19404139      15.16214239      15.14049172      15.12654236      15.11807663      15.11241789      15.10954480      15.10853345      15.10796955      15.10721497      15.10606483      15.10399562      15.10179100      15.10046586      15.09894808      15.09708334      15.09550564      15.09455170
        15.09377615      15.09305100      15.09302163      15.09364548      15.09495253      15.09637797      15.09765776      15.09927270      15.10118505      15.10328134      15.10579469      15.10884828      15.11280322      15.11764517      15.12315053      15.12960250      15.13696321      15.14493573      15.15368220      15.16336327
        15.17428592      15.18690285      15.20196189      15.21939067      15.23820614      15.25701275      15.27485755      15.29205687      15.30809488      15.32029661      15.32534369      15.32280340      15.31100878      15.29141407      15.27250906      15.25809184      15.24720218      15.23946599      15.23484698      15.23121727
        15.22869379      15.22778902      15.22750862      15.22718834      15.22614285      15.22390148      15.22038979      15.21546813      15.20938259      15.20434108      15.20163646      15.20109713      15.20055276      15.19926475      15.19733326      15.19499412      15.19213521      15.18937841      15.18748678      15.18656827
        15.76331882      15.76180291      15.76010261      15.75712679      15.75164959      15.74351138      15.73162591      15.71460129      15.69246425      15.66611462      15.63898003      15.61307592      15.58532851      15.55743873      15.53020582      15.50377650      15.47725176      15.44851651      15.41397610      15.37456229
        15.33208427      15.28543371      15.23938879      15.20084539      15.17265781      15.15371103      15.14199728      15.13448558      15.13000629      15.12826789      15.12767913      15.12711126      15.12617066      15.12444503      15.12211792      15.12024259      15.11852702      15.11605469      15.11338557      15.11126408
        15.10942295      15.10781404      15.10653380      15.10614423      15.10633858      15.10688859      15.10785177      15.10923733      15.11093690      15.11290445      15.11517539      15.11822326      15.12235110      15.12745902      15.13324973      15.13956724      15.14646215      15.15401751      15.16272953      15.17264148
        15.18381431      15.19666176      15.21264592      15.23173322      15.25277009      15.27439932      15.29586411      15.31759697      15.33860344      15.35623664      15.36777424      15.36917236      15.36011443      15.34056582      15.31775598      15.29870262      15.28434178      15.27307882      15.26556103      15.26085219
        15.25709545      15.25480367      15.25356436      15.25241863      15.25138410      15.24949965      15.24684734      15.24254779      15.23695399      15.23121604      15.22756251      15.22597001      15.22506733      15.22367400      15.22169143      15.21911254      15.21569223      15.21196246      15.20885244      15.20710109
        15.79195609      15.79109764      15.78952223      15.78691713      15.78211673      15.77477157      15.76420193      15.75032579      15.73290177      15.70996065      15.68267999      15.65658447      15.63002962      15.60095783      15.57117590      15.54150405      15.51284193      15.48405252      15.45257706      15.41627259
        15.37665469      15.33171509      15.28457220      15.24175847      15.20756463      15.18300319      15.16725547      15.15726046      15.15101415      15.14815233      15.14720580      15.14677963      15.14611152      15.14501147      15.14311924      15.14095455      15.13894370      15.13629738      15.13299056      15.12964430
        15.12677217      15.12405171      15.12126662      15.11931580      15.11822105      15.11792537      15.11847774      15.11940269      15.12073570      15.12257574      15.12471603      15.12780100      15.13221321      15.13750968      15.14330978      15.14935102      15.15580945      15.16308507      15.17174839      15.18177728
        15.19306856      15.20606856      15.22253610      15.24261539      15.26557469      15.29041487      15.31560291      15.34175775      15.36769000      15.39161112      15.41086728      15.41761180      15.41125853      15.39296091      15.36771662      15.34340489      15.32487809      15.31026697      15.29918809      15.29211759
        15.28694138      15.28255359      15.27972707      15.27767091      15.27589738      15.27411789      15.27189165      15.26804641      15.26320864      15.25722338      15.25246583      15.24973689      15.24835161      15.24695644      15.24487417      15.24201495      15.23860854      15.23468468      15.23087473      15.22895286
        15.81561797      15.81564504      15.81471450      15.81276342      15.80893855      15.80290988      15.79397158      15.78202773      15.76818042      15.75052076      15.72652518      15.70066168      15.67552493      15.64678234      15.61536063      15.58249346      15.55017101      15.51875986      15.48741455      15.45294383
        15.41534392      15.37271309      15.32624586      15.28184360      15.24331699      15.21359120      15.19357187      15.18016822      15.17178530      15.16748332      15.16596674      15.16565914      15.16539324      15.16496818      15.16381591      15.16174882      15.15930629      15.15639323      15.15293932      15.14886068
        15.14513399      15.14142611      15.13724580      15.13350032      15.13081490      15.12957739      15.12944753      15.12983781      15.13076025      15.13241072      15.13469383      15.13796704      15.14246914      15.14768636      15.15321123      15.15885833      15.16502210      15.17206088      15.18051233      15.19057724
        15.20186968      15.21498964      15.23154876      15.25217772      15.27683959      15.30480727      15.33416022      15.36470641      15.39546958      15.42603784      15.45278359      15.46662060      15.46348422      15.44718847      15.42078296      15.39193777      15.36818473      15.34992622      15.33536914      15.32492131
        15.31767135      15.31126206      15.30648000      15.30306020      15.29985198      15.29723289      15.29488368      15.29159790      15.28724499      15.28159357      15.27603183      15.27225599      15.27003424      15.26825169      15.26629438      15.26361340      15.26036462      15.25679996      15.25328456      15.25122655
        15.83551789      15.83605732      15.83612154      15.83488242      15.83201527      15.82724242      15.82023168      15.81037875      15.79893384      15.78604805      15.76809757      15.74531755      15.72158813      15.69521005      15.66368507      15.62824659      15.59189440      15.55680519      15.52260311      15.48781296
        15.45034803      15.40926952      15.36379474      15.31898925      15.27829121      15.24447721      15.22021593      15.20329784      15.19220619      15.18603754      15.18360006      15.18317272      15.18333934      15.18348285      15.18295431      15.18107358      15.17854593      15.17549482      15.17196678      15.16789841
        15.16357001      15.15919689      15.15410452      15.14874132      15.14428128      15.14169315      15.14060749      15.14047386      15.14112429      15.14258255      15.14503800      15.14844367      15.15282220      15.15791033      15.16311049      15.16834066      15.17404172      15.18077229      15.18890036      15.19885511
        15.21030151      15.22366332      15.24042905      15.26161476      15.28759771      15.31809565      15.35129880      15.38626958      15.42219832      15.45874356      15.49281411      15.51412970      15.51570581      15.50176588      15.47610033      15.44468290      15.41497833      15.39133028      15.37258026      15.35875223
        15.34881570      15.34072725      15.33407324      15.32904301      15.32447276      15.32023973      15.31686417      15.31389180      15.30951664      15.30409415      15.29827865      15.29368386      15.29049270      15.28796087      15.28612103      15.28405689      15.28134398      15.27831916      15.27558488      15.27368892
        15.85231310      15.85318298      15.85393569      15.85355618      15.85146672      15.84769176      15.84228479      15.83469298      15.82552883      15.81610600      15.80373353      15.78659332      15.76574536      15.74240434      15.71347064      15.67763987      15.63726600      15.59858618      15.56080742      15.52377335
        15.48484644      15.44319448      15.39863262      15.35335921      15.31146942      15.27519675      15.24706712      15.22666768      15.21282010      15.20441491      15.20038130      15.19922618      15.19948570      15.20003448      15.19995259      15.19849684      15.19609912      15.19325404      15.18989701      15.18621947
        15.18177618      15.17683627      15.17128923      15.16486873      15.15886499      15.15474118      15.15254042      15.15174241      15.15208474      15.15333334      15.15565729      15.15898120      15.16323088      15.16805369      15.17289504      15.17768838      15.18296116      15.18931850      15.19720974      15.20715950
        15.21878943      15.23254631      15.24979310      15.27144711      15.29838105      15.33074506      15.36684921      15.40587746      15.44688991      15.48910185      15.52910665      15.55807367      15.56744870      15.55741074      15.53321164      15.49960125      15.46360991      15.43357460      15.40993596      15.39259892
        15.37978210      15.37009798      15.36198739      15.35548348      15.34971285      15.34387093      15.33867061      15.33460630      15.32998935      15.32440568      15.31850903      15.31352121      15.30974699      15.30669579      15.30450173      15.30301356      15.30138559      15.29911725      15.29686396      15.29542019
        15.86631181      15.86727269      15.86823694      15.86841259      15.86713762      15.86438075      15.86010146      15.85440466      15.84730216      15.84001675      15.83119582      15.81905994      15.80294388      15.78335809      15.75883180      15.72649020      15.68499971      15.64176912      15.60116175      15.56165115
        15.52122592      15.47726771      15.43214485      15.38689346      15.34398117      15.30599447      15.27448795      15.25045890      15.23385161      15.22327663      15.21714627      15.21467116      15.21441679      15.21486165      15.21509010      15.21424101      15.21223407      15.20972014      15.20682623      15.20340101
        15.19915284      15.19394066      15.18831700      15.18161229      15.17470347      15.16906653      15.16561218      15.16400579      15.16378691      15.16459297      15.16652452      15.16954207      15.17351819      15.17794478      15.18237711      15.18687649      15.19199942      15.19815936      15.20608039      15.21598249
        15.22763405      15.24155502      15.25927298      15.28186470      15.30946939      15.34267701      15.38118507      15.42390279      15.46942628      15.51653541      15.56242078      15.59942881      15.61698317      15.61306348      15.59128028      15.55651624      15.51543672      15.47771167      15.44860217      15.42665906
        15.41076585      15.39917833      15.38995215      15.38215389      15.37509268      15.36788744      15.36080011      15.35442336      15.34889717      15.34316821      15.33689084      15.33151955      15.32766602      15.32464788      15.32217467      15.32093317      15.32008823      15.31877671      15.31710853      15.31604908
        15.87804007      15.87883446      15.87970151      15.87996127      15.87931648      15.87745652      15.87412705      15.86965834      15.86416078      15.85833026      15.85177148      15.84308968      15.83134867      15.81583485      15.79638166      15.76977438      15.73224402      15.68677200      15.64284312      15.60087705
        15.55878835      15.51343113      15.46638068      15.42027450      15.37667549      15.33770270      15.30344331      15.27533318      15.25527775      15.24265837      15.23465539      15.23047118      15.22909873      15.22889138      15.22896675      15.22849195      15.22713997      15.22514065      15.22259070      15.21921411