# File generated by Flopy version 3.6.0 on 11/07/2024 at 09:09:49.
BEGIN griddata
  strt
    INTERNAL  FACTOR  1.0
        15.00000000      15.00000000      15.00000000      15.00000000      15.00000000      15.00000000      15.00000000      15.00000000      15.00000000      15.00000000      15.00000000      15.00000000      15.00000000      15.00000000      15.00000000      15.00000000      15.00000000      15.00000000      15.00000000      15.00000000
        15.00000000      15.00000000      15.00000000      15.00000000      15.00000000      15.00000000      15.00000000      15.00000000      15.00000000      15.00000000      15.00000000      15.00000000      15.00000000      15.00000000      15.00000000      15.00000000      15.00000000      15.00000000      15.00000000      15.00000000
        15.00000000      15.00000000      15.00000000      15.00000000      15.00000000      15.00000000      15.00000000      15.00000000      15.00000000      15.00000000      15.00000000      15.00000000      15.00000000      15.00000000      15.00000000      15.00000000      15.00000000      15.00000000      15.00000000      15.00000000
        15.00000000      15.00000000      15.00000000      15.00000000      15.00000000      15.00000000      15.00000000      15.00000000      15.00000000      15.00000000      15.00000000      15.00000000      15.00000000      15.00000000      15.00000000      15.00000000      15.00000000      15.00000000      15.00000000      15.00000000
        15.00000000      15.00000000      15.00000000      15.00000000      15.00000000      15.00000000      15.00000000      15.00000000      15.00000000      15.00000000      15.00000000      15.00000000      15.00000000      15.00000000      15.00000000      15.00000000      15.00000000      15.00000000      15.00000000      15.00000000
        15.03214260      15.03329779      15.03566600      15.03883969      15.04203093      15.04411794      15.04232494      15.03761043      15.03209655      15.02612334      15.02099621      15.01662979      15.01321400      15.01112952      15.00988718      15.00868202      15.00726472      15.00562673      15.00418306      15.00313453
        15.00228899      15.00163979      15.00122218      15.00099429      15.00084309      15.00073176      15.00065084      15.00059581      15.00056865      15.00055338      15.00053624      15.00051408      15.00048465      15.00045463      15.00043566      15.00042274      15.00040402      15.00038134      15.00034999      15.00031521
        15.00029007      15.00027013      15.00024950      15.00023795      15.00024395      15.00025345      15.00027309      15.00031714      15.00039761      15.00052036      15.00069166      15.00093962      15.00130735      15.00186527      15.00263585      15.00357622      15.00462136      15.00588373      15.00748978      15.00939122
        15.01152767      15.01419718      15.01698378      15.01958087      15.02118236      15.02174930      15.02191959      15.02161122      15.02057641      15.01896828      15.01768462      15.01658194      15.01575625      15.01556709      15.01554608      15.01570981      15.01642227      15.01752228      15.01878867      15.02009329
        15.02082274      15.02029744      15.01922274      15.01750546      15.01610923      15.01537195      15.01528705      15.01549480      15.01545934      15.01556260      15.01560061      15.01585452      15.01652421      15.01722837      15.01823899      15.01946756      15.02024101      15.02059402      15.02077252      15.02053629
        15.04987264      15.05160266      15.05491205      15.05945949      15.06459192      15.06818523      15.06640259      15.05934379      15.05083535      15.04194490      15.03382548      15.02729900      15.02200961      15.01841780      15.01618709      15.01430582      15.01217292      15.00972552      15.00737977      15.00556657
        15.00415331      15.00307197      15.00235131      15.00192254      15.00164516      15.00143291      15.00127750      15.00116932      15.00110355      15.00106207      15.00102156      15.00097431      15.00092132      15.00086325      15.00081417      15.00078367      15.00074987      15.00069890      15.00063805      15.00056560
        15.00050283      15.00045533      15.00041026      15.00037700      15.00037211      15.00038251      15.00041244      15.00047746      15.00059720      15.00078702      15.00107025      15.00148984      15.00210132      15.00301060      15.00431641      15.00598700      15.00794987      15.01027119      15.01312272      15.01664798
        15.02070251      15.02532297      15.03023140      15.03504915      15.03886819      15.04073760      15.04146159      15.04146859      15.04034193      15.03845189      15.03654599      15.03482338      15.03351913      15.03307414      15.03323097      15.03381453      15.03507116      15.03663450      15.03845531      15.04055798
        15.04193420      15.04178358      15.04044672      15.03814815      15.03551400      15.03348660      15.03249164      15.03256797      15.03270754      15.03272632      15.03271348      15.03283086      15.03377872      15.03496158      15.03662719      15.03879658      15.04048159      15.04154415      15.04192405      15.04179668
        15.05505373      15.05698904      15.06091911      15.06592695      15.07119821      15.07485193      15.07369792      15.06656306      15.05732901      15.04811093      15.03949365      15.03232210      15.02653596      15.02238055      15.01970236      15.01763198      15.01528510      15.01256840      15.00990683      15.00760586
        15.00578115      15.00437452      15.00343781      15.00284143      15.00244792      15.00214100      15.00189307      15.00171851      15.00160620      15.00152544      15.00145430      15.00137414      15.00129663      15.00121923      15.00114810      15.00109034      15.00103529      15.00095204      15.00085020      15.00073657
        15.00063160      15.00054513      15.00047031      15.00041159      15.00038397      15.00038036      15.00040604      15.00047525      15.00060839      15.00083273      15.00118960      15.00172985      15.00250515      15.00363788      15.00527420      15.00748383      15.01024023      15.01357188      15.01750137      15.02230513
        15.02789962      15.03426851      15.04117209      15.04804982      15.05399228      15.05774074      15.05968042      15.06045108      15.06015233      15.05866278      15.05656472      15.05472668      15.05305619      15.05222830      15.05249505      15.05360579      15.05530847      15.05702912      15.05896739      15.06138951
        15.06324326      15.06374079      15.06260831      15.06036124      15.05698219      15.05376320      15.05179869      15.05126818      15.05150661      15.05159549      15.05155466      15.05159268      15.05249608      15.05392918      15.05597037      15.05843659      15.06077653      15.06238773      15.06297089      15.06321553
        15.04992761      15.05158029      15.05549672      15.06007202      15.06445849      15.06745368      15.06690414      15.06141238      15.05353515      15.04551449      15.03798262      15.03159391      15.02653424      15.02294423      15.02057239      15.01882072      15.01682371      15.01429254      15.01172489      15.00928245
        15.00722139      15.00562450      15.00451664      15.00377987      15.00326201      15.00285735      15.00251546      15.00225186      15.00207291      15.00194536      15.00183970      15.00172388      15.00161663      15.00152013      15.00142928      15.00133878      15.00124602      15.00111951      15.00096710      15.00080811
        15.00066289      15.00053441      15.00042117      15.00033239      15.00027834      15.00024954      15.00025755      15.00032289      15.00045883      15.00069725      15.00109622      15.00171921      15.00261531      15.00389516      15.00573101      15.00831209      15.01178195      15.01608657      15.02099912      15.02673387
        15.03359092      15.04160570      15.05029406      15.05923335      15.06731144      15.07335520      15.07713848      15.07936340      15.08045587      15.07994121      15.07797899      15.07600292      15.07414363      15.07306881      15.07321648      15.07454502      15.07637536      15.07818797      15.08014394      15.08248492
        15.08466613      15.08564034      15.08509033      15.08302232      15.07963705      15.07574493      15.07317165      15.07179307      15.07171764      15.07224690      15.07276578      15.07320400      15.07401316      15.07527551      15.07684698      15.07894454      15.08142395      15.08336598      15.08434843      15.08493454
        15.03639387      15.03762744      15.04041766      15.04382830      15.04709537      15.04976530      15.05009176      15.04695347      15.04152425      15.03563484      15.03006657      15.02557521      15.02225476      15.01991240      15.01851961      15.01752018      15.01635509      15.01460662      15.01260513      15.01049231
        15.00847385      15.00679233      15.00557720      15.00471500      15.00407243      15.00356513      15.00313760      15.00278083      15.00251659      15.00232057      15.00216536      15.00201058      15.00186711      15.00174305      15.00162602      15.00149875      15.00135524      15.00117438      15.00097278      15.00076848
        15.00058035      15.00040597      15.00025077      15.00012914      15.00004697      14.99999154      14.99998032      15.00003889      15.00017563      15.00042136      15.00083918      15.00152316      15.00252612      15.00390700      15.00582293      15.00866459      15.01272144      15.01784916      15.02367786      15.03034301
        15.03825122      15.04762364      15.05805945      15.06905641      15.07949408      15.08789015      15.09397587      15.09821546      15.10120488      15.10240265      15.10128754      15.09924045      15.09725830      15.09589937      15.09568007      15.09673999      15.09852493      15.10042222      15.10245178      15.10467994
        15.10680786      15.10831897      15.10866912      15.10728182      15.10423202      15.10047231      15.09715324      15.09493423      15.09425146      15.09514146      15.09651871      15.09766584      15.09858561      15.09945271      15.10003873      15.10122394      15.10324418      15.10543309      15.10695982      15.10748250
        15.01714187      15.01787404      15.01943451      15.02166383      15.02412528      15.02664003      15.02757005      15.02656208      15.02395230      15.02100825      15.01803269      15.01571573      15.01439661      15.01355087      15.01329415      15.01343686      15.01355393      15.01321920      15.01235920      15.01103858
        15.00948433      15.00789805      15.00661539      15.00566267      15.00490358      15.00427377      15.00374297      15.00328563      15.00292830      15.00264270      15.00241282      15.00220701      15.00202361      15.00186139      15.00170719      15.00153782      15.00133927      15.00109796      15.00084112      15.00058741
        15.00034919      15.00012528      14.99992502      14.99976457      14.99965482      14.99958317      14.99957252      14.99962853      14.99976937      15.00002194      15.00044299      15.00115872      15.00224864      15.00373474      15.00569166      15.00864115      15.01307795      15.01884341      15.02550847      15.03308576
        15.04193159      15.05247254      15.06444948      15.07757047      15.09040128      15.10165177      15.11074578      15.11765389      15.12323028      15.12656343      15.12697869      15.12490327      15.12288956      15.12158834      15.12094788      15.12123955      15.12279518      15.12499137      15.12725345      15.12958308
        15.13141389      15.13312154      15.13455007      15.13468839      15.13243476      15.12886931      15.12467836      15.12126703      15.11954837      15.12031795      15.12232513      15.12429142      15.12559656      15.12621663      15.12630908      15.12632448      15.12721380      15.12926686      15.13110600      15.13181031
        14.99466210      14.99498626      14.99586439      14.99742542      14.99935624      15.00152957      15.00321993      15.00372703      15.00362934      15.00368939      15.00355491      15.00344577      15.00382340      15.00465070      15.00558490      15.00692842      15.00853544      15.00995518      15.01072161      15.01068335
        15.01002521      15.00887449      15.00763380      15.00661109      15.00574462      15.00496846      15.00429415      15.00371248      15.00324654      15.00285722      15.00253338      15.00226690      15.00204104      15.00183731      15.00163596      15.00141302      15.00114292      15.00081978      15.00048904      15.00017687
        14.99989672      14.99964006      14.99940655      14.99921452      14.99907723      14.99900106      14.99900243      14.99906562      14.99922001      14.99948314      14.99991465      15.00064114      15.00179128      15.00336780      15.00538123      15.00834939      15.01297219      15.01909062      15.02621918      15.03445909
        15.04420866      15.05587341      15.06929453      15.08421902      15.09949804      15.11422290      15.12686664      15.13713739      15.14612833      15.15235880      15.15511638      15.15413054      15.15154418      15.15002097      15.14901724      15.14860249      15.14955074      15.15204687      15.15465171      15.15718099
        15.15887037      15.16078433      15.16318687      15.16480171      15.16435833      15.16099255      15.15619158      15.15129307      15.14813163      15.14793060      15.15009080      15.15276314      15.15466073      15.15540777      15.15545211      15.15461051      15.15416282      15.15512644      15.15702463      15.15806032
        14.96993100      14.97049588      14.97137279      14.97270497      14.97404596      14.97587635      14.97846249      14.98077844      14.98289182      14.98519041      14.98747680      14.98973195      14.99162654      14.99406352      14.99645640      14.99895030      15.00190082      15.00505193      15.00760334      15.00913708
        15.00974178      15.00940913      15.00847587      15.00748430      15.00652866      15.00560698      15.00475506      15.00400663      15.00340450      15.00289533      15.00247358      15.00213628      15.00186213      15.00161019      15.00134182      15.00104253      15.00068533      15.00027306      14.99986700      14.99949588
        14.99918519      14.99891062      14.99866729      14.99846438      14.99830448      14.99822713      14.99824341      14.99833210      14.99849822      14.99877429      14.99922542      14.99996012      15.00114484      15.00280137      15.00489929      15.00786262      15.01241621      15.01858286      15.02590053      15.03440578
        15.04476460      15.05744424      15.07242585      15.08927384      15.10725189      15.12515096      15.14146789      15.15573764      15.16897771      15.17945124      15.18574285      15.18761218      15.18505055      15.18225928      15.18060491      15.17938194      15.17939943      15.18146353      15.18443054      15.18676542
        15.18870424      15.19148886      15.19476903      15.19716249      15.19778255      15.19550076      15.19087387      15.18534099      15.18123085      15.17952316      15.18123978      15.18415889      15.18642779      15.18720764      15.18670817      15.18520813      15.18388015      15.18320010      15.18442477      15.18565366
        14.94452066      14.94540181      14.94660460      14.94788290      14.94889993      14.95096165      14.95401093      14.95813411      14.96231690      14.96642691      14.97040054      14.97480008      14.97862933      14.98253270      14.98647467      14.99016324      14.99412634      14.99858354      15.00280180      15.00597874
        15.00811414      15.00905679      15.00886943      15.00813528      15.00717971      15.00612925      15.00511685      15.00417213      15.00338638      15.00272627      15.00218273      15.00174481      15.00138843      15.00106228      15.00071272      15.00030980      14.99985995      14.99936433      14.99889211      14.99846453
        14.99812460      14.99785727      14.99762699      14.99744749      14.99729297      14.99722643      14.99727128      14.99738539      14.99756064      14.99785320      14.99830974      14.99906225      15.00025968      15.00195486      15.00414812      15.00711794      15.01149000      15.01741676      15.02471476      15.03339450
        15.04409179      15.05752595      15.07404548      15.09311075      15.11377482      15.13468177      15.15458093      15.17335564      15.19159966      15.20741413      15.21846588      15.22443260      15.22428824      15.22031305      15.21696099      15.21463768      15.21342435      15.21437708      15.21702024      15.21886830
        15.22122410      15.22475460      15.22830454      15.23095943      15.23169864      15.23067719      15.22722523      15.22235380      15.21778098      15.21530783      15.21605889      15.21897291      15.22083387      15.22111285      15.21972456      15.21744889      15.21508546      15.21292077      15.21243216      15.21304392
        14.91852806      14.91965598      14.92085287      14.92205449      14.92351569      14.92587349      14.92915455      14.93434692      14.94029637      14.94644662      14.95202859      14.95794877      14.96400132      14.96961512      14.97514451      14.98030374      14.98536718      14.99076423      14.99636435      15.00124121
        15.00508909      15.00764706      15.00864590      15.00850795      15.00772415      15.00659093      15.00540287      15.00421725      15.00317738      15.00230538      15.00158612      15.00100089      15.00051901      15.00008985      14.99963159      14.99908389      14.99850841      14.99793518      14.99741006      14.99694340
        14.99661366      14.99639874      14.99621334      14.99608413      14.99598673      14.99596619      14.99605192      14.99617708      14.99636346      14.99667582      14.99714429      14.99789676      14.99910335      15.00079051      15.00300936      15.00595133      15.01010423      15.01581200      15.02312143      15.03194731
        15.04272743      15.05647871      15.07417484      15.09557262      15.11914357      15.14321570      15.16700889      15.19069515      15.21448047      15.23641570      15.25370038      15.26563324      15.27000825      15.26622303      15.26025935      15.25609158      15.25311694      15.25221698      15.25365725      15.25525919
        15.25730717      15.26063099      15.26384203      15.26636200      15.26766159      15.26723193      15.26526891      15.26173612      15.25712647      15.25421898      15.25406726      15.25624272      15.25754458      15.25715949      15.25539249      15.25267641      15.24884459      15.24494771      15.24223805      15.24090868
        14.89284087      14.89410079      14.89518408      14.89640456      14.89841808      14.90105862      14.90452450      14.90945719      14.91581873      14.92363603      14.93129298      14.93851359      14.94651449      14.95450848      14.96219235      14.96937607      14.97605798      14.98253108      14.98927817      14.99563122
        15.00107542      15.00533364      15.00780727      15.00859701      15.00815201      15.00696915      15.00557603      15.00410733      15.00274952      15.00159719      15.00064715      14.99987283      14.99923114      14.99863885      14.99800546      14.99727662      14.99651097      14.99581873      14.99524065      14.99476731
        14.99449202      14.99435016      14.99430695      14.99429172      14.99431795      14.99439857      14.99451954      14.99467448      14.99488388      14.99520939      14.99571884      14.99646612      14.99764802      14.99931564      15.00147970      15.00432004      15.00823470      15.01376319      15.02112496      15.03015768
        15.04102143      15.05477206      15.07325233      15.09659628      15.12316362      15.15106667      15.17929524      15.20851596      15.23865131      15.26751458      15.29374985      15.31282561      15.32218761      15.32025603      15.31241462      15.30532892      15.30005068      15.29652098      15.29567316      15.29680497
        15.29796703      15.30012440      15.30253112      15.30429254      15.30595102      15.30629168      15.30583881      15.30334453      15.29957387      15.29582540      15.29450595      15.29528146      15.29607925      15.29549158      15.29357172      15.29037753      15.28555540      15.28005173      15.27541186      15.27279681
        14.86937800      14.87016823      14.87119991      14.87227095      14.87415712      14.87686831      14.88041994      14.88466974      14.88992535      14.89789266      14.90768547      14.91684367      14.92618078      14.93655185      14.94704289      14.95712448      14.96619488      14.97447030      14.98242597      14.99008395
        14.99686758      15.00254976      15.00645806      15.00833253      15.00842466      15.00726394      15.00563506      15.00382981      15.00211109      15.00061463      14.99938888      14.99837530      14.99751060      14.99666479      14.99575681      14.99476776      14.99374657      14.99285544      14.99216699      14.99170723
        14.99147859      14.99145656      14.99165492      14.99190093      14.99214802      14.99237534      14.99256624      14.99280296      14.99307779      14.99341245      14.99395121      14.99471691      14.99585683      14.99748780      14.99959262      15.00230357      15.00594943      15.01120916      15.01864901      15.02802025
        15.03907476      15.05294427      15.07174182      15.09633289      15.12564382      15.15818241      15.19181511      15.22706370      15.26405356      15.30137099      15.33778941      15.36512531      15.37985423      15.38095721      15.37247518      15.36175250      15.35356647      15.34762982      15.34366892      15.34273384
        15.34270807      15.34254453      15.34317968      15.34406250      15.34504175      15.34592229      15.34640114      15.34474281      15.34223660      15.33804044      15.33501579      15.33400935      15.33399534      15.33331062      15.33111587      15.32736071      15.32246694      15.31657905      15.31076974      15.30789465
        14.84817176      14.84815550      14.84859497      14.84915178      14.85051354      14.85270107      14.85587673      14.85992422      14.86432677      14.87101348      14.88110527      14.89216560      14.90279753      14.91518661      14.92858882      14.94214913      14.95461624      14.96565760      14.97548166      14.98455961
        14.99265001      14.99962635      15.00485683      15.00780487      15.00854248      15.00750622      15.00564309      15.00345276      15.00131451      14.99941346      14.99782669      14.99649462      14.99532209      14.99412133      14.99281573      14.99147402      14.99018031      14.98904636      14.98814008      14.98761824
        14.98739546      14.98749635      14.98800715      14.98867615      14.98930697      14.98976515      14.99011219      14.99047616      14.99086141      14.99123988      14.99175334      14.99251357      14.99362796      14.99521550      14.99727741      14.99993837      15.00342387      15.00837421      15.01565587      15.02543686
        15.03701614      15.05124235      15.07036448      15.09577005      15.12754523      15.16468289      15.20471694      15.24669667      15.29070186      15.33721276      15.38396884      15.42178730      15.44299948      15.44867783      15.44065478      15.42678404      15.41431623      15.40543357      15.39807839      15.39352190
        15.39126511      15.38862857      15.38685962      15.38609948      15.38519836      15.38511029      15.38565395      15.38507090      15.38336998      15.37947694      15.37487047      15.37196367      15.37042332      15.36894697      15.36682960      15.36326331      15.35855518      15.35320071      15.34783550      15.34476065
        14.82871982      14.82806766      14.82740092      14.82727149      14.82795459      14.82949843      14.83188279      14.83548063      14.83954861      14.84462325      14.85287211      14.86418010      14.87615149      14.88968664      14.90573401      14.92317937      14.93993053      14.95472801      14.96760051      14.97869901
        14.98846773      14.99681066      15.00328938      15.00722610      15.00857979      15.00771452      15.00565217      15.00305299      15.00040470      14.99800503      14.99597884      14.99425996      14.99267983      14.99102953      14.98926610      14.98754286      14.98588321      14.98439802      14.98318873      14.98242783
        14.98218570      14.98238633      14.98317634      14.98437481      14.98558939      14.98647566      14.98711237      14.98764355      14.98813453      14.98860127      14.98909606      14.98982568      14.99092993      14.99245345      14.99446648      14.99716627      15.00070641      15.00546047      15.01249405      15.02232786
        15.03466884      15.04975411      15.06962029      15.09608769      15.12997652      15.17104123      15.21707752      15.26634325      15.31877976      15.37482990      15.43307245      15.48287809      15.51300348      15.52401631      15.51815282      15.50274656      15.48438775      15.46987302      15.45755882      15.44901023
        15.44340701      15.43852695      15.43410916      15.43104699      15.42821086      15.42578504      15.42493711      15.42513530      15.42328190      15.41931446      15.41376493      15.40910301      15.40564884      15.40272063      15.40067570      15.39804362      15.39417311      15.38969583      15.38563145      15.38285595
        14.81085054      14.80962446      14.80794220      14.80681892      14.80691667      14.80794338      14.80960879      14.81232395      14.81572527      14.81939632      14.82536762      14.83495592      14.84732586      14.86145752      14.87891067      14.89983059      14.92186132      14.94126410      14.95805528      14.97200099
        14.98397038      14.99401263      15.00166429      15.00655554      15.00849779      15.00782345      15.00559233      15.00256560      14.99936167      14.99638583      14.99384477      14.99169069      14.98964703      14.98748586      14.98522363      14.98299902      14.98085867      14.97889135      14.97725652      14.97610472
        14.97577289      14.97613100      14.97714327      14.97884172      14.98071958      14.98221388      14.98328372      14.98409246      14.98474178      14.98534095      14.98592171      14.98667016      14.98778243      14.98928509      14.99119750      14.99384088      14.99757442      15.00242239      15.00933603      15.01916235
        15.03191357      15.04814355      15.06940513      15.09724045      15.13307994      15.17775844      15.22926060      15.28601398      15.34790828      15.41472186      15.48422896      15.54713387      15.58998733      15.60787889      15.60532580      15.58817019      15.56214171      15.53990358      15.52110308      15.50782058
        15.49784548      15.49047550      15.48383280      15.47858751      15.47394649      15.46904562      15.46548423      15.46396814      15.46135784      15.45652315      15.45015453      15.44427484      15.43946170      15.43541171      15.43260426      15.43084410      15.42876217      15.42554887      15.42231055      15.42035433
        14.79465557      14.79302273      14.79073506      14.78882580      14.78817049      14.78845524      14.78956662      14.79126288      14.79373807      14.79657398      14.80102874      14.80853058      14.81959590      14.83360743      14.85119540      14.87364427      14.90038440      14.92569266      14.94668941      14.96388487
        14.97842040      14.99069131      14.99973148      15.00554961      15.00808449      15.00767715      15.00534537      15.00183648      14.99800846      14.99442959      14.99136216      14.98870360      14.98612644      14.98344837      14.98062030      14.97778354      14.97505215      14.97247754      14.97026397      14.96878001
        14.96831910      14.96882798      14.96996706      14.97197234      14.97440672      14.97665601      14.97833368      14.97955280      14.98050449      14.98135712      14.98214843      14.98302566      14.98417852      14.98572895      14.98762516      14.99011731      14.99380191      14.99886913      15.00593255      15.01586615
        15.02893214      15.04602901      15.06902300      15.09935949      15.13742882      15.18486307      15.24175532      15.30623340      15.37760482      15.45491220      15.53639606      15.61405637      15.67084596      15.69913401      15.70159578      15.68349959      15.65055318      15.61752534      15.59027348      15.56964679
        15.55455192      15.54409056      15.53564588      15.52833472      15.52163042      15.51455047      15.50786221      15.50220111      15.49760318      15.49180414      15.48398497      15.47677351      15.47138960      15.46712493      15.46364516      15.46220140      15.46138856      15.45977897      15.45757214      15.45633614
        14.77988770      14.77815488      14.77559276      14.77334803      14.77188524      14.77127262      14.77167790      14.77260383      14.77423571      14.77652552      14.77998032      14.78592268      14.79521850      14.80833899      14.82499675      14.84710471      14.87581421      14.90664579      14.93269561      14.95378589
        14.97136116      14.98593416      14.99670525      15.00357765      15.00675177      15.00674016      15.00448673      15.00057518      14.99614405      14.99197463      14.98832377      14.98506475      14.98195194      14.97875748      14.97536973      14.97188958      14.96839140      14.96506769      14.96231119      14.96067033