# File generated by Flopy version 3.6.0 on 09/27/2024 at 11:41:50.
BEGIN griddata
  strt
    INTERNAL  FACTOR  1.0
        15.00000000      15.00000000      15.00000000      15.00000000      15.00000000      15.00000000      15.00000000      15.00000000      15.00000000      15.00000000      15.00000000      15.00000000      15.00000000      15.00000000      15.00000000      15.00000000      15.00000000      15.00000000      15.00000000      15.00000000
        15.00000000      15.00000000      15.00000000      15.00000000      15.00000000      15.00000000      15.00000000      15.00000000      15.00000000      15.00000000      15.00000000      15.00000000      15.00000000      15.00000000      15.00000000      15.00000000      15.00000000      15.00000000      15.00000000      15.00000000
        15.00000000      15.00000000      15.00000000      15.00000000      15.00000000      15.00000000      15.00000000      15.00000000      15.00000000      15.00000000      15.00000000      15.00000000      15.00000000      15.00000000      15.00000000      15.00000000      15.00000000      15.00000000      15.00000000      15.00000000
        15.00000000      15.00000000      15.00000000      15.00000000      15.00000000      15.00000000      15.00000000      15.00000000      15.00000000      15.00000000      15.00000000      15.00000000      15.00000000      15.00000000      15.00000000      15.00000000      15.00000000      15.00000000      15.00000000      15.00000000
        15.00000000      15.00000000      15.00000000      15.00000000      15.00000000      15.00000000      15.00000000      15.00000000      15.00000000      15.00000000      15.00000000      15.00000000      15.00000000      15.00000000      15.00000000      15.00000000      15.00000000      15.00000000      15.00000000      15.00000000
        15.11751823      15.11685313      15.11640976      15.11554915      15.11225057      15.10646830      15.09724493      15.08836084      15.07954266      15.06962052      15.06124497      15.05285431      15.04590266      15.04147209      15.03791947      15.03282101      15.02661753      15.02036234      15.01541021      15.01195078
        15.00916600      15.00716016      15.00592240      15.00528383      15.00487136      15.00462320      15.00451167      15.00449942      15.00458275      15.00468684      15.00472633      15.00475077      15.00469575      15.00460441      15.00457924      15.00461639      15.00463191      15.00478670      15.00498274      15.00529202
        15.00578327      15.00633990      15.00695731      15.00778470      15.00870259      15.00947622      15.01024587      15.01119130      15.01225333      15.01316397      15.01379494      15.01445312      15.01528920      15.01624669      15.01716631      15.01802062      15.01885467      15.02015764      15.02199340      15.02388708
        15.02611551      15.02918230      15.03232622      15.03480214      15.03567148      15.03521165      15.03431919      15.03304463      15.03079345      15.02787057      15.02546474      15.02325520      15.02137126      15.02040894      15.01973176      15.01931497      15.01967949      15.02046617      15.02141162      15.02239749
        15.02282327      15.02197822      15.02065308      15.01866906      15.01692953      15.01585451      15.01543268      15.01533860      15.01500466      15.01483039      15.01462180      15.01462281      15.01501843      15.01545238      15.01617687      15.01712639      15.01774685      15.01804253      15.01820863      15.01801185
        15.22244184      15.22106398      15.21820012      15.21607560      15.21311236      15.20542896      15.19006539      15.17291159      15.15691085      15.13954928      15.12278488      15.10794443      15.09475628      15.08474132      15.07695609      15.06751651      15.05602146      15.04426199      15.03366200      15.02586640
        15.01999094      15.01577203      15.01305405      15.01151507      15.01060644      15.00999676      15.00970100      15.00963705      15.00974738      15.00995152      15.01007778      15.01016539      15.01013026      15.00993291      15.00974310      15.00981820      15.00995878      15.01022431      15.01069496      15.01128101
        15.01207215      15.01318258      15.01438543      15.01573434      15.01735772      15.01885622      15.02036949      15.02206239      15.02387566      15.02531058      15.02629369      15.02744013      15.02894836      15.03061182      15.03234619      15.03396507      15.03564753      15.03799936      15.04144883      15.04544792
        15.04973034      15.05459028      15.05956045      15.06372497      15.06619985      15.06613261      15.06490959      15.06331446      15.06021358      15.05615249      15.05211850      15.04822183      15.04478023      15.04261732      15.04138580      15.04075661      15.04113278      15.04184488      15.04283695      15.04416674
        15.04487429      15.04415043      15.04236035      15.03962337      15.03641497      15.03379066      15.03218562      15.03167355      15.03122664      15.03070917      15.03022300      15.02987982      15.03030786      15.03097031      15.03209099      15.03371595      15.03504061      15.03590713      15.03624053      15.03615088
        15.31517191      15.31405772      15.30981096      15.30669412      15.30334977      15.29513315      15.27780791      15.25479186      15.23262556      15.21031724      15.18748454      15.16709455      15.14899925      15.13286372      15.11996731      15.10630762      15.08939255      15.07201910      15.05600439      15.04297486
        15.03327969      15.02629268      15.02185457      15.01911858      15.01752531      15.01648043      15.01581380      15.01562814      15.01577852      15.01603725      15.01626812      15.01636728      15.01633829      15.01609251      15.01580905      15.01582002      15.01611905      15.01652848      15.01719153      15.01797647
        15.01892776      15.02030687      15.02190274      15.02367052      15.02572454      15.02795514      15.03022287      15.03246959      15.03460826      15.03632530      15.03769404      15.03918772      15.04107929      15.04334825      15.04579305      15.04814452      15.05071742      15.05421649      15.05894476      15.06469381
        15.07055983      15.07671831      15.08320492      15.08883903      15.09295743      15.09424124      15.09355537      15.09201911      15.08915151      15.08465426      15.07934414      15.07429093      15.06939383      15.06580231      15.06384750      15.06306940      15.06328265      15.06358180      15.06413076      15.06523682
        15.06599265      15.06562124      15.06383920      15.06100850      15.05697082      15.05305321      15.05029417      15.04892197      15.04828396      15.04758066      15.04684392      15.04621579      15.04638853      15.04708701      15.04837106      15.05011646      15.05189948      15.05317318      15.05366746      15.05389429
        15.39722869      15.39727193      15.39452149      15.39190035      15.38772346      15.37782692      15.35866472      15.33246775      15.30586282      15.28067486      15.25567785      15.23164881      15.20945449      15.18888341      15.17022231      15.15218425      15.12952712      15.10531136      15.08365916      15.06473808
        15.04999947      15.03953979      15.03281985      15.02861917      15.02607317      15.02450328      15.02342826      15.02292374      15.02291286      15.02319404      15.02356502      15.02362692      15.02350779      15.02326871      15.02299447      15.02289851      15.02321124      15.02376220      15.02443098      15.02527147
        15.02634214      15.02782145      15.02968276      15.03168666      15.03404298      15.03685364      15.03971877      15.04221491      15.04444512      15.04637767      15.04807433      15.04987721      15.05212919      15.05494784      15.05804312      15.06111260      15.06472814      15.06937901      15.07498740      15.08166740
        15.08898382      15.09669192      15.10455237      15.11178361      15.11743468      15.12055213      15.12107309      15.12031522      15.11810499      15.11368552      15.10732686      15.10091933      15.09474381      15.08986005      15.08683814      15.08551214      15.08522946      15.08506020      15.08505360      15.08552383
        15.08616921      15.08597621      15.08456347      15.08179706      15.07771343      15.07309520      15.06957193      15.06714185      15.06591806      15.06532843      15.06484485      15.06435586      15.06425358      15.06464765      15.06540912      15.06673722      15.06854076      15.07002168      15.07081704      15.07130989
        15.47158459      15.47174667      15.47160312      15.46965351      15.46482675      15.45332725      15.43330384      15.40539348      15.37642110      15.34936758      15.32369230      15.29812900      15.27280852      15.25005835      15.22741569      15.20495477      15.17736243      15.14608754      15.11761388      15.09254444
        15.07140675      15.05614616      15.04647473      15.04032605      15.03649566      15.03421380      15.03277087      15.03190576      15.03159684      15.03171451      15.03212927      15.03215053      15.03181999      15.03153133      15.03129826      15.03115085      15.03137500      15.03189989      15.03248610      15.03320506
        15.03428268      15.03584814      15.03785369      15.04003018      15.04259011      15.04566505      15.04871294      15.05127026      15.05360497      15.05568415      15.05769179      15.05986761      15.06256865      15.06591749      15.06964304      15.07345648      15.07812860      15.08374328      15.09008813      15.09746063
        15.10592299      15.11500488      15.12435707      15.13321832      15.14069232      15.14543716      15.14764444      15.14830426      15.14721670      15.14356547      15.13690149      15.12909490      15.12157109      15.11525207      15.11077989      15.10826546      15.10726000      15.10661281      15.10612635      15.10593277
        15.10610004      15.10611955      15.10533317      15.10305522      15.09919892      15.09459314      15.09021794      15.08681392      15.08476537      15.08419180      15.08419209      15.08409170      15.08391183      15.08385660      15.08373928      15.08425206      15.08560469      15.08720521      15.08838286      15.08881083
        15.53629753      15.53663713      15.53745165      15.53577219      15.53031151      15.51851339      15.49977071      15.47316634      15.44353575      15.41442242      15.38741500      15.36183624      15.33516377      15.31083004      15.28733800      15.26173510      15.23079852      15.19442891      15.15909723      15.12747073
        15.09947857      15.07758439      15.06365661      15.05496869      15.04942290      15.04610693      15.04422547      15.04307637      15.04249112      15.04229753      15.04255053      15.04241811      15.04174194      15.04122892      15.04089623      15.04066796      15.04085461      15.04131169      15.04183700      15.04239028
        15.04332678      15.04479606      15.04678251      15.04911184      15.05174446      15.05475328      15.05754271      15.06009333      15.06240046      15.06457174      15.06697570      15.06959978      15.07271598      15.07645929      15.08065088      15.08528262      15.09096165      15.09769602      15.10493215      15.11287957
        15.12186455      15.13194015      15.14266786      15.15342028      15.16292207      15.16998558      15.17446379      15.17708637      15.17781113      15.17537643      15.16919934      15.15979710      15.15063376      15.14292442      15.13674145      15.13240162      15.13038794      15.12937921      15.12851747      15.12786332
        15.12731884      15.12715210      15.12700898      15.12582118      15.12250463      15.11796974      15.11278423      15.10824237      15.10510451      15.10413134      15.10438742      15.10474194      15.10472032      15.10437002      15.10379767      15.10334180      15.10375466      15.10516839      15.10652145      15.10706842
        15.59194551      15.59252380      15.59307580      15.59107767      15.58562530      15.57486796      15.55692311      15.53256258      15.50426450      15.47433415      15.44523703      15.41921448      15.39360061      15.36800810      15.34480011      15.31913869      15.28694907      15.24812156      15.20790403      15.16987783
        15.13514850      15.10583487      15.08572375      15.07337752      15.06562377      15.06082685      15.05806824      15.05654460      15.05579860      15.05543620      15.05530307      15.05480047      15.05371067      15.05261795      15.05205562      15.05165850      15.05171509      15.05207440      15.05253713      15.05302567
        15.05371925      15.05483424      15.05657629      15.05883858      15.06148892      15.06422524      15.06667484      15.06905373      15.07121433      15.07352724      15.07610108      15.07903023      15.08242103      15.08645874      15.09094769      15.09632225      15.10304043      15.11074000      15.11872048      15.12712466
        15.13648192      15.14720870      15.15901482      15.17143912      15.18309651      15.19349947      15.20098845      15.20626301      15.20964526      15.20909401      15.20415694      15.19416740      15.18221599      15.17250163      15.16460185      15.15841046      15.15487225      15.15337940      15.15217939      15.15111014
        15.14997109      15.14951452      15.14976448      15.14950506      15.14752150      15.14314209      15.13749638      15.13172074      15.12722926      15.12517335      15.12525842      15.12593293      15.12621271      15.12586133      15.12519668      15.12408134      15.12346388      15.12401246      15.12534237      15.12610131
        15.64166492      15.64134729      15.64083280      15.63824186      15.63322496      15.62354918      15.60636163      15.58290084      15.55603833      15.52747529      15.49807420      15.47045276      15.44590306      15.42042899      15.39658642      15.37219923      15.34162240      15.30286727      15.26064068      15.21868478
        15.17822094      15.14172358      15.11401109      15.09651113      15.08544514      15.07872681      15.07447632      15.07211849      15.07120190      15.07082567      15.07025559      15.06939791      15.06792936      15.06619567      15.06523537      15.06455023      15.06416638      15.06416124      15.06439538      15.06474741
        15.06513377      15.06583567      15.06707997      15.06897770      15.07149165      15.07394434      15.07610928      15.07813984      15.08022344      15.08253022      15.08506180      15.08808633      15.09170119      15.09597977      15.10074705      15.10668805      15.11406407      15.12225675      15.13060143      15.13935706
        15.14915572      15.16046318      15.17326437      15.18714031      15.20127211      15.21466818      15.22564810      15.23435118      15.24134064      15.24414391      15.24148854      15.23277791      15.21853832      15.20523091      15.19502582      15.18673365      15.18118263      15.17834568      15.17672184      15.17490168
        15.17347046      15.17318930      15.17367643      15.17371598      15.17244678      15.16895603      15.16351321      15.15724259      15.15184241      15.14832581      15.14772656      15.14830684      15.14869526      15.14828681      15.14721309      15.14565321      15.14442160      15.14378646      15.14457789      15.14542528
        15.68521338      15.68414857      15.68254057      15.67956017      15.67483366      15.66551533      15.64987991      15.62712042      15.60096455      15.57365102      15.54574239      15.51748382      15.49204412      15.46717660      15.44257729      15.41859893      15.39071017      15.35487280      15.31298606      15.26971082
        15.22636653      15.18416816      15.14901984      15.12487201      15.10921635      15.09962193      15.09359131      15.08982752      15.08823856      15.08772229      15.08703525      15.08612125      15.08467961      15.08266845      15.08104550      15.08008592      15.07907461      15.07829182      15.07783790      15.07776215
        15.07775534      15.07786700      15.07854494      15.07985501      15.08195885      15.08403010      15.08576701      15.08749628      15.08950422      15.09167720      15.09422432      15.09721153      15.10097944      15.10547179      15.11050823      15.11675063      15.12421883      15.13232859      15.14071554      15.14981148
        15.16010018      15.17197376      15.18581273      15.20122902      15.21767113      15.23376540      15.24820759      15.26108200      15.27239734      15.27962030      15.28033139      15.27421381      15.26031133      15.24298361      15.22889756      15.21802113      15.21007782      15.20513590      15.20238508      15.19959812
        15.19791646      15.19767139      15.19797920      15.19797060      15.19666678      15.19407702      15.18954137      15.18372226      15.17783177      15.17345653      15.17179265      15.17206558      15.17201647      15.17122149      15.16955973      15.16751885      15.16561815      15.16398815      15.16357340      15.16395735
        15.72424067      15.72280733      15.72100292      15.71797174      15.71275624      15.70401389      15.69032903      15.66956570      15.64432825      15.61728342      15.59054071      15.56326845      15.53591589      15.51027793      15.48489925      15.46023204      15.43394784      15.40233830      15.36363965      15.32125737
        15.27719928      15.23162671      15.19012115      15.15861676      15.13729106      15.12358640      15.11528893      15.10975690      15.10695846      15.10598109      15.10543861      15.10470569      15.10358150      15.10155513      15.09939722      15.09810426      15.09662980      15.09482400      15.09330410      15.09239619
        15.09166158      15.09097424      15.09096543      15.09159234      15.09288443      15.09428818      15.09554541      15.09712824      15.09899957      15.10104756      15.10349992      15.10647481      15.11032253      15.11502905      15.12037465      15.12663388      15.13376263      15.14147073      15.14992930      15.15931478
        15.16994239      15.18227502      15.19708532      15.21434372      15.23308060      15.25187912      15.26975470      15.28700164      15.30310103      15.31537284      15.32048326      15.31801067      15.30628505      15.28673142      15.26783684      15.25341075      15.24250410      15.23475311      15.23012426      15.22649283
        15.22396557      15.22304562      15.22273932      15.22238445      15.22130085      15.21902651      15.21549060      15.21056612      15.20451862      15.19954835      15.19691820      15.19643334      15.19593723      15.19469865      15.19281666      15.19052365      15.18770913      15.18498850      15.18311832      15.18220676
        15.75866375      15.75715462      15.75545418      15.75247217      15.74698186      15.73882024      15.72690084      15.70983806      15.68765826      15.66126473      15.63408141      15.60812583      15.58033150      15.55239187      15.52511185      15.49863803      15.47207335      15.44331348      15.40878220      15.36942414
        15.32705858      15.28061570      15.23488814      15.19672038      15.16888489      15.15022726      15.13872187      15.13136304      15.12698893      15.12530103      15.12473595      15.12418668      15.12326729      15.12157519      15.11929495      15.11746369      15.11579706      15.11339831      15.11081340      15.10876669
        15.10699184      15.10544170      15.10421018      15.10384675      15.10405075      15.10459822      15.10554678      15.10690640      15.10857080      15.11049440      15.11271097      15.11568346      15.11970558      15.12467939      15.13031403      15.13645435      15.14314550      15.15046604      15.15891336      15.16855140
        15.17945739      15.19205279      15.20781072      15.22674247      15.24771223      15.26934232      15.29084399      15.31262640      15.33369180      15.35138904      15.36298385      15.36443638      15.35542325      15.33589123      15.31306806      15.29397512      15.27956211      15.26825413      15.26070734      15.25598179
        15.25221303      15.24990577      15.24864261      15.24746464      15.24638892      15.24446132      15.24176483      15.23743386      15.23183880      15.22614295      15.22255159      15.22101591      15.22015787      15.21880643      15.21686455      15.21432489      15.21094541      15.20725426      15.20417475      15.20243769
        15.78712824      15.78627170      15.78469152      15.78207263      15.77725090      15.76987506      15.75926503      15.74534077      15.72786496      15.70488098      15.67756346      15.65142564      15.62482657      15.59571239      15.56589136      15.53618347      15.50748594      15.47867018      15.44718440      15.41089934
        15.37134087      15.32653339      15.27962006      15.23711919      15.20326451      15.17901692      15.16351205      15.15369719      15.14758200      15.14479198      15.14387765      15.14346871      15.14281716      15.14173806      15.13988314      15.13776917      15.13581565      15.13324792      15.13003984      15.12679520
        15.12401196      15.12137333      15.11866674      15.11677344      15.11571415      15.11543337      15.11598053      15.11688962      15.11819593      15.11999661      15.12208728      15.12509935      15.12940604      15.13457231      15.14022610      15.14610882      15.15239070      15.15945980      15.16788180      15.17765906
        15.18871256      15.20149230      15.21776333      15.23770455      15.26060420      15.28544760      15.31067108      15.33687046      15.36285152      15.38682264      15.40611358      15.41288252      15.40654542      15.38824565      15.36298299      15.33862672      15.32003212      15.30535791      15.29423770      15.28714561
        15.28195509      15.27755496      15.27470908      15.27262309      15.27080968      15.26898317      15.26670541      15.26281166      15.25794298      15.25196632      15.24725020      15.24457032      15.24322286      15.24185950      15.23980889      15.23698167      15.23360522      15.22971088      15.22592906      15.22401756
        15.81062153      15.81064256      15.80969976      15.80772704      15.80387348      15.79780728      15.78882393      15.77682959      15.76292750      15.74522295      15.72119462      15.69529805      15.67012171      15.64134452      15.60989433      15.57700133      15.54465353      15.51322361      15.48186406      15.44739728
        15.40983078      15.36728228      15.32097294      15.27680723      15.23857482      15.20915629      15.18939672      15.17620246      15.16797442      15.16376650      15.16229349      15.16200311      15.16174854      15.16133446      15.16020788      15.15819167      15.15581708      15.15298912      15.14963730      15.14567390
        15.14205256      15.13844404      15.13436583      15.13070941      15.12808797      15.12688304      15.12676144      15.12714672      15.12805129      15.12966799      15.13190196      15.13510276      15.13950379      15.14460046      15.14999380      15.15550123      15.16151038      15.16837019      15.17660951      15.18644474
        15.19752368      15.21045245      15.22684440      15.24735533      15.27196487      15.29993673      15.32931993      15.35990051      15.39069772      15.42129617      15.44804775      15.46187794      15.45873465      15.44242222      15.41599487      15.38710912      15.36328336      15.34495458      15.33035313      15.31988718
        15.31262816      15.30621118      15.30141422      15.29796827      15.29472274      15.29205643      15.28965315      15.28630787      15.28190465      15.27623183      15.27068459      15.26694230      15.26475064      15.26299222      15.26105628      15.25839666      15.25516708      15.25161880      15.24811828      15.24606587
        15.83035658      15.83088344      15.83092490      15.82965754      15.82675624      15.82194209      15.81488305      15.80497964      15.79348281      15.78054980      15.76256263      15.73975366      15.71599496      15.68959000      15.65804642      15.62259314      15.58622875      15.55112923      15.51691830      15.48212921
        15.44468663      15.40366114      15.35829471      15.31366204      15.27319872      15.23966139      15.21566054      15.19896837      15.18805571      15.18200535      15.17962725      15.17922195      15.17939639      15.17954622      15.17903767      15.17720745      15.17475150      15.17178945      15.16836495      15.16441056
        15.16019647      15.15593136      15.15095223      15.14570168      15.14133340      15.13880046      15.13773982      15.13761106      15.13824978      15.13967958      15.14208627      15.14542202      15.14970821      15.15468703      15.15977136      15.16487922      15.17044594      15.17702286      15.18496923      15.19472179
        15.20597386      15.21916626      15.23579027      15.25687809      15.28281844      15.31332067      15.34654873      15.38154274      15.41749196      15.45405106      15.48810947      15.50940598      15.51096379      15.49699289      15.47129036      15.43982548      15.41004435      15.38632726      15.36753744      15.35369836
        15.34376106      15.33567022      15.32900484      15.32395153      15.31934460      15.31506158      15.31162759      15.30858830      15.30414855      15.29868192      15.29285424      15.28827376      15.28510260      15.28258838      15.28076114      15.27870717      15.27600262      15.27298256      15.27024957      15.26835295
        15.84699213      15.84784346      15.84856443      15.84814964      15.84602411      15.84220762      15.83675213      15.82911015      15.81989669      15.81042649      15.79801562      15.78084769      15.75997981      15.73662052      15.70767731      15.67184280      15.63146863      15.59278472      15.55500197      15.51796979
        15.47905994      15.43744505      15.39295677      15.34781001      15.30610242      15.27006362      15.24218159      15.22201304      15.20836044      15.20009777      15.19614768      15.19502924      15.19530032      15.19585587      15.19579353      15.19438570      15.19206038      15.18930289      15.18604721      15.18247647
        15.17814565      15.17331778      15.16788495      15.16158698      15.15569485      15.15164890      15.14949070      15.14870877      15.14904568      15.15027117      15.15255162      15.15581195      15.15997830      15.16470503      15.16944724      15.17413653      15.17929163      15.18551562      15.19325093      15.20302514
        15.21448407      15.22808994      15.24521477      15.26678878      15.29368992      15.32605899      15.36218314      15.40122676      15.44225132      15.48447168      15.52446597      15.55341762      15.56276167      15.55266804      15.52841581      15.49475678      15.45869196      15.42859160      15.40491417      15.38756960
        15.37475636      15.36507365      15.35695392      15.35042821      15.34462085      15.33872435      15.33345512      15.32931364      15.32462039      15.31897558      15.31304589      15.30805404      15.30428790      15.30124624      15.29905921      15.29757333      15.29594379      15.29367119      15.29141164      15.28996137
        15.86084009      15.86177838      15.86270619      15.86284258      15.86152998      15.85873116      15.85440634      15.84866066      15.84151119      15.83418327      15.82532798      15.81316670      15.79703455      15.77743744      15.75290596      15.72056478      15.67907926      15.63584947      15.59523843      15.55572981
        15.51531514      15.47138382      15.42631289      15.38115339      15.33838263      15.30058943      15.26931061      15.24551266      15.22911048      15.21869595      15.21267653      15.21026042      15.21003135      15.21049193      15.21074295      15.20993851      15.20800179      15.20557372      15.20277595      15.19945165
        15.19530744      15.19020391      15.18468850      15.17810248      15.17131226      15.16577188      15.16237725      15.16079900      15.16058415      15.16137551      15.16327245      15.16623589      15.17014002      15.17448493      15.17883388      15.18324561      15.18826600      15.19430802      15.20209197      15.21184368
        15.22334978      15.23714166      15.25475461      15.27727926      15.30485919      15.33807107      15.37659344      15.41932101      15.46485296      15.51197025      15.55784541      15.59483657      15.61235546      15.60837227      15.58653989      15.55174249      15.51059582      15.47280031      15.44364400      15.42169018
        15.40580073      15.39421638      15.38498246      15.37716228      15.37006256      15.36279674      15.35562716      15.34915564      15.34353925      15.33773737      15.33141263      15.32602320      15.32216668      15.31914956      15.31667786      15.31543410      15.31458269      15.31326119      15.31158164      15.31051250
        15.87242747      15.87319844      15.87402811      15.87424933      15.87356568      15.87166433      15.86829241      15.86377857      15.85823880      15.85237246      15.84578424      15.83707976      15.82532273      15.80979813      15.79033646      15.76372484      15.72619439      15.68072395      15.63679191      15.59482603
        15.55274129      15.50740252      15.46039236      15.41435580      15.37086834      15.33205443      15.29799960      15.27012111      15.25028432      15.23783752      15.22996531      15.22586552      15.22453961      15.22436426      15.22447208      15.22404352      15.22275836      15.22084208      15.21838412      15.21510282