# File generated by Flopy version 3.7.0 on 06/10/2024 at 08:50:42.
BEGIN options
  TIME_UNITS  seconds
END options

BEGIN dimensions
  NPER  1460
END dimensions

BEGIN perioddata
   21600.00000000  1       1.00000000
   21600.00000000  1       1.00000000
   21600.00000000  1       1.00000000
   21600.00000000  1       1.00000000
   21600.00000000  1       1.00000000
   21600.00000000  1       1.00000000
   21600.00000000  1       1.00000000
   21600.00000000  1       1.00000000
   21600.00000000  1       1.00000000
   21600.00000000  1       1.00000000
   21600.00000000  1       1.00000000
   21600.00000000  1       1.00000000
   21600.00000000  1       1.00000000
   21600.00000000  1       1.00000000
   21600.00000000  1       1.00000000
   21600.00000000  1       1.00000000
   21600.00000000  1       1.00000000
   21600.00000000  1       1.00000000
   21600.00000000  1       1.00000000
   21600.00000000  1       1.00000000
   21600.00000000  1       1.00000000
   21600.00000000  1       1.00000000
   21600.00000000  1       1.00000000
   21600.00000000  1       1.00000000
   21600.00000000  1       1.00000000
   21600.00000000  1       1.00000000
   21600.00000000  1       1.00000000
   21600.00000000  1       1.00000000
   21600.00000000  1       1.00000000
   21600.00000000  1       1.00000000
   21600.00000000  1       1.00000000
   21600.00000000  1       1.00000000
   21600.00000000  1       1.00000000
   21600.00000000  1       1.00000000
   21600.00000000  1       1.00000000
   21600.00000000  1       1.00000000
   21600.00000000  1       1.00000000
   21600.00000000  1       1.00000000
   21600.00000000  1       1.00000000
   21600.00000000  1       1.00000000
   21600.00000000  1       1.00000000
   21600.00000000  1       1.00000000
   21600.00000000  1       1.00000000
   21600.00000000  1       1.00000000
   21600.00000000  1       1.00000000
   21600.00000000  1       1.00000000
   21600.00000000  1       1.00000000
   21600.00000000  1       1.00000000
   21600.00000000  1       1.00000000
   21600.00000000  1       1.00000000
   21600.00000000  1       1.00000000
   21600.00000000  1       1.00000000
   21600.00000000  1       1.00000000
   21600.00000000  1       1.00000000
   21600.00000000  1       1.00000000
   21600.00000000  1       1.00000000
   21600.00000000  1       1.00000000
   21600.00000000  1       1.00000000
   21600.00000000  1       1.00000000
   21600.00000000  1       1.00000000
   21600.00000000  1       1.00000000
   21600.00000000  1       1.00000000
   21600.00000000  1       1.00000000
   21600.00000000  1       1.00000000
   21600.00000000  1       1.00000000
   21600.00000000  1       1.00000000
   21600.00000000  1       1.00000000
   21600.00000000  1       1.00000000
   21600.00000000  1       1.00000000
   21600.00000000  1       1.00000000
   21600.00000000  1       1.00000000
   21600.00000000  1       1.00000000
   21600.00000000  1       1.00000000
   21600.00000000  1       1.00000000
   21600.00000000  1       1.00000000
   21600.00000000  1       1.00000000
   21600.00000000  1       1.00000000
   21600.00000000  1       1.00000000
   21600.00000000  1       1.00000000
   21600.00000000  1       1.00000000
   21600.00000000  1       1.00000000
   21600.00000000  1       1.00000000
   21600.00000000  1       1.00000000
   21600.00000000  1       1.00000000
   21600.00000000  1       1.00000000
   21600.00000000  1       1.00000000
   21600.00000000  1       1.00000000
   21600.00000000  1       1.00000000
   21600.00000000  1       1.00000000
   21600.00000000  1       1.00000000
   21600.00000000  1       1.00000000
   21600.00000000  1       1.00000000
   21600.00000000  1       1.00000000
   21600.00000000  1       1.00000000
   21600.00000000  1       1.00000000
   21600.00000000  1       1.00000000
   21600.00000000  1       1.00000000
   21600.00000000  1       1.00000000
   21600.00000000  1       1.00000000
   21600.00000000  1       1.00000000
   21600.00000000  1       1.00000000
   21600.00000000  1       1.00000000
   21600.00000000  1       1.00000000
   21600.00000000  1       1.00000000
   21600.00000000  1       1.00000000
   21600.00000000  1       1.00000000
   21600.00000000  1       1.00000000
   21600.00000000  1       1.00000000
   21600.00000000  1       1.00000000
   21600.00000000  1       1.00000000
   21600.00000000  1       1.00000000
   21600.00000000  1       1.00000000
   21600.00000000  1       1.00000000
   21600.00000000  1       1.00000000
   21600.00000000  1       1.00000000
   21600.00000000  1       1.00000000
   21600.00000000  1       1.00000000
   21600.00000000  1       1.00000000
   21600.00000000  1       1.00000000
   21600.00000000  1       1.00000000
   21600.00000000  1       1.00000000
   21600.00000000  1       1.00000000
   21600.00000000  1       1.00000000
   21600.00000000  1       1.00000000
   21600.00000000  1       1.00000000
   21600.00000000  1       1.00000000
   21600.00000000  1       1.00000000
   21600.00000000  1       1.00000000
   21600.00000000  1       1.00000000
   21600.00000000  1       1.00000000
   21600.00000000  1       1.00000000
   21600.00000000  1       1.00000000
   21600.00000000  1       1.00000000
   21600.00000000  1       1.00000000
   21600.00000000  1       1.00000000
   21600.00000000  1       1.00000000
   21600.00000000  1       1.00000000
   21600.00000000  1       1.00000000
   21600.00000000  1       1.00000000
   21600.00000000  1       1.00000000
   21600.00000000  1       1.00000000
   21600.00000000  1       1.00000000
   21600.00000000  1       1.00000000
   21600.00000000  1       1.00000000
   21600.00000000  1       1.00000000
   21600.00000000  1       1.00000000
   21600.00000000  1       1.00000000
   21600.00000000  1       1.00000000
   21600.00000000  1       1.00000000
   21600.00000000  1       1.00000000
   21600.00000000  1       1.00000000
   21600.00000000  1       1.00000000
   21600.00000000  1       1.00000000
   21600.00000000  1       1.00000000
   21600.00000000  1       1.00000000
   21600.00000000  1       1.00000000
   21600.00000000  1       1.00000000
   21600.00000000  1       1.00000000
   21600.00000000  1       1.00000000
   21600.00000000  1       1.00000000
   21600.00000000  1       1.00000000
   21600.00000000  1       1.00000000
   21600.00000000  1       1.00000000
   21600.00000000  1       1.00000000
   21600.00000000  1       1.00000000
   21600.00000000  1       1.00000000
   21600.00000000  1       1.00000000
   21600.00000000  1       1.00000000
   21600.00000000  1       1.00000000
   21600.00000000  1       1.00000000
   21600.00000000  1       1.00000000
   21600.00000000  1       1.00000000
   21600.00000000  1       1.00000000
   21600.00000000  1       1.00000000
   21600.00000000  1       1.00000000
   21600.00000000  1       1.00000000
   21600.00000000  1       1.00000000
   21600.00000000  1       1.00000000
   21600.00000000  1       1.00000000
   21600.00000000  1       1.00000000
   21600.00000000  1       1.00000000
   21600.00000000  1       1.00000000
   21600.00000000  1       1.00000000
   21600.00000000  1       1.00000000
   21600.00000000  1       1.00000000
   21600.00000000  1       1.00000000
   21600.00000000  1       1.00000000
   21600.00000000  1       1.00000000
   21600.00000000  1       1.00000000
   21600.00000000  1       1.00000000
   21600.00000000  1       1.00000000
   21600.00000000  1       1.00000000
   21600.00000000  1       1.00000000
   21600.00000000  1       1.00000000
   21600.00000000  1       1.00000000
   21600.00000000  1       1.00000000
   21600.00000000  1       1.00000000
   21600.00000000  1       1.00000000
   21600.00000000  1       1.00000000
   21600.00000000  1       1.00000000
   21600.00000000  1       1.00000000
   21600.00000000  1       1.00000000
   21600.00000000  1       1.00000000
   21600.00000000  1       1.00000000
   21600.00000000  1       1.00000000
   21600.00000000  1       1.00000000
   21600.00000000  1       1.00000000
   21600.00000000  1       1.00000000
   21600.00000000  1       1.00000000
   21600.00000000  1       1.00000000
   21600.00000000  1       1.00000000
   21600.00000000  1       1.00000000
   21600.00000000  1       1.00000000
   21600.00000000  1       1.00000000
   21600.00000000  1       1.00000000
   21600.00000000  1       1.00000000
   21600.00000000  1       1.00000000
   21600.00000000  1       1.00000000
   21600.00000000  1       1.00000000
   21600.00000000  1       1.00000000
   21600.00000000  1       1.00000000
   21600.00000000  1       1.00000000
   21600.00000000  1       1.00000000
   21600.00000000  1       1.00000000
   21600.00000000  1       1.00000000
   21600.00000000  1       1.00000000
   21600.00000000  1       1.00000000
   21600.00000000  1       1.00000000
   21600.00000000  1       1.00000000
   21600.00000000  1       1.00000000
   21600.00000000  1       1.00000000
   21600.00000000  1       1.00000000
   21600.00000000  1       1.00000000
   21600.00000000  1       1.00000000
   21600.00000000  1       1.00000000
   21600.00000000  1       1.00000000
   21600.00000000  1       1.00000000
   21600.00000000  1       1.00000000
   21600.00000000  1       1.00000000
   21600.00000000  1       1.00000000
   21600.00000000  1       1.00000000
   21600.00000000  1       1.00000000
   21600.00000000  1       1.00000000
   21600.00000000  1       1.00000000
   21600.00000000  1       1.00000000
   21600.00000000  1       1.00000000
   21600.00000000  1       1.00000000
   21600.00000000  1       1.00000000
   21600.00000000  1       1.00000000
   21600.00000000  1       1.00000000
   21600.00000000  1       1.00000000
   21600.00000000  1       1.00000000
   21600.00000000  1       1.00000000
   21600.00000000  1       1.00000000
   21600.00000000  1       1.00000000
   21600.00000000  1       1.00000000
   21600.00000000  1       1.00000000
   21600.00000000  1       1.00000000
   21600.00000000  1       1.00000000
   21600.00000000  1       1.00000000
   21600.00000000  1       1.00000000
   21600.00000000  1       1.00000000
   21600.00000000  1       1.00000000
   21600.00000000  1       1.00000000
   21600.00000000  1       1.00000000
   21600.00000000  1       1.00000000
   21600.00000000  1       1.00000000
   21600.00000000  1       1.00000000
   21600.00000000  1       1.00000000
   21600.00000000  1       1.00000000
   21600.00000000  1       1.00000000
   21600.00000000  1       1.00000000
   21600.00000000  1       1.00000000
   21600.00000000  1       1.00000000
   21600.00000000  1       1.00000000
   21600.00000000  1       1.00000000
   21600.00000000  1       1.00000000
   21600.00000000  1       1.00000000
   21600.00000000  1       1.00000000
   21600.00000000  1       1.00000000
   21600.00000000  1       1.00000000
   21600.00000000  1       1.00000000
   21600.00000000  1       1.00000000
   21600.00000000  1       1.00000000
   21600.00000000  1       1.00000000
   21600.00000000  1       1.00000000
   21600.00000000  1       1.00000000
   21600.00000000  1       1.00000000
   21600.00000000  1       1.00000000
   21600.00000000  1       1.00000000
   21600.00000000  1       1.00000000
   21600.00000000  1       1.00000000
   21600.00000000  1       1.00000000
   21600.00000000  1       1.00000000
   21600.00000000  1       1.00000000
   21600.00000000  1       1.00000000
   21600.00000000  1       1.00000000
   21600.00000000  1       1.00000000
   21600.00000000  1       1.00000000
   21600.00000000  1       1.00000000
   21600.00000000  1       1.00000000
   21600.00000000  1       1.00000000
   21600.00000000  1       1.00000000
   21600.00000000  1       1.00000000
   21600.00000000  1       1.00000000
   21600.00000000  1       1.00000000
   21600.00000000  1       1.00000000
   21600.00000000  1       1.00000000
   21600.00000000  1       1.00000000
   21600.00000000  1       1.00000000
   21600.00000000  1       1.00000000
   21600.00000000  1       1.00000000
   21600.00000000  1       1.00000000
   21600.00000000  1       1.00000000
   21600.00000000  1       1.00000000
   21600.00000000  1       1.00000000
   21600.00000000  1       1.00000000
   21600.00000000  1       1.00000000
   21600.00000000  1       1.00000000
   21600.00000000  1       1.00000000
   21600.00000000  1       1.00000000
   21600.00000000  1       1.00000000
   21600.00000000  1       1.00000000
   21600.00000000  1       1.00000000
   21600.00000000  1       1.00000000
   21600.00000000  1       1.00000000
   21600.00000000  1       1.00000000
   21600.00000000  1       1.00000000
   21600.00000000  1       1.00000000
   21600.00000000  1       1.00000000
   21600.00000000  1       1.00000000
   21600.00000000  1       1.00000000
   21600.00000000  1       1.00000000
   21600.00000000  1       1.00000000
   21600.00000000  1       1.00000000
   21600.00000000  1       1.00000000
   21600.00000000  1       1.00000000
   21600.00000000  1       1.00000000
   21600.00000000  1       1.00000000
   21600.00000000  1       1.00000000
   21600.00000000  1       1.00000000
   21600.00000000  1       1.00000000
   21600.00000000  1       1.00000000
   21600.00000000  1       1.00000000
   21600.00000000  1       1.00000000
   21600.00000000  1       1.00000000
   21600.00000000  1       1.00000000
   21600.00000000  1       1.00000000
   21600.00000000  1       1.00000000
   21600.00000000  1       1.00000000
   21600.00000000  1       1.00000000
   21600.00000000  1       1.00000000
   21600.00000000  1       1.00000000
   21600.00000000  1       1.00000000
   21600.00000000  1       1.00000000
   21600.00000000  1       1.00000000
   21600.00000000  1       1.00000000
   21600.00000000  1       1.00000000
   21600.00000000  1       1.00000000
   21600.00000000  1       1.00000000
   21600.00000000  1       1.00000000
   21600.00000000  1       1.00000000
   21600.00000000  1       1.00000000
   21600.00000000  1       1.00000000
   21600.00000000  1       1.00000000
   21600.00000000  1       1.00000000
   21600.00000000  1       1.00000000
   21600.00000000  1       1.00000000
   21600.00000000  1       1.00000000
   21600.00000000  1       1.00000000
   21600.00000000  1       1.00000000
   21600.00000000  1       1.00000000
   21600.00000000  1       1.00000000
   21600.00000000  1       1.00000000
   21600.00000000  1       1.00000000
   21600.00000000  1       1.00000000
   21600.00000000  1       1.00000000
   21600.00000000  1       1.00000000
   21600.00000000  1       1.00000000
   21600.00000000  1       1.00000000
   21600.00000000  1       1.00000000
   21600.00000000  1       1.00000000
   21600.00000000  1       1.00000000
   21600.00000000  1       1.00000000
   21600.00000000  1       1.00000000
   21600.00000000  1       1.00000000
   21600.00000000  1       1.00000000
   21600.00000000  1       1.00000000
   21600.00000000  1       1.00000000
   21600.00000000  1       1.00000000
   21600.00000000  1       1.00000000
   21600.00000000  1       1.00000000
   21600.00000000  1       1.00000000
   21600.00000000  1       1.00000000
   21600.00000000  1       1.00000000
   21600.00000000  1       1.00000000
   21600.00000000  1       1.00000000
   21600.00000000  1       1.00000000
   21600.00000000  1       1.00000000
   21600.00000000  1       1.00000000
   21600.00000000  1       1.00000000
   21600.00000000  1       1.00000000
   21600.00000000  1       1.00000000
   21600.00000000  1       1.00000000
   21600.00000000  1       1.00000000
   21600.00000000  1       1.00000000
   21600.00000000  1       1.00000000
   21600.00000000  1       1.00000000
   21600.00000000  1       1.00000000
   21600.00000000  1       1.00000000
   21600.00000000  1       1.00000000
   21600.00000000  1       1.00000000
   21600.00000000  1       1.00000000
   21600.00000000  1       1.00000000
   21600.00000000  1       1.00000000
   21600.00000000  1       1.00000000
   21600.00000000  1       1.00000000
   21600.00000000  1       1.00000000
   21600.00000000  1       1.00000000
   21600.00000000  1       1.00000000
   21600.00000000  1       1.00000000
   21600.00000000  1       1.00000000
   21600.00000000  1       1.00000000
   21600.00000000  1       1.00000000
   21600.00000000  1       1.00000000
   21600.00000000  1       1.00000000
   21600.00000000  1       1.00000000
   21600.00000000  1       1.00000000
   21600.00000000  1       1.00000000
   21600.00000000  1       1.00000000
   21600.00000000  1       1.00000000
   21600.00000000  1       1.00000000
   21600.00000000  1       1.00000000
   21600.00000000  1       1.00000000
   21600.00000000  1       1.00000000
   21600.00000000  1       1.00000000
   21600.00000000  1       1.00000000
   21600.00000000  1       1.00000000
   21600.00000000  1       1.00000000
   21600.00000000  1       1.00000000
   21600.00000000  1       1.00000000
   21600.00000000  1       1.00000000
   21600.00000000  1       1.00000000
   21600.00000000  1       1.00000000
   21600.00000000  1       1.00000000
   21600.00000000  1       1.00000000
   21600.00000000  1       1.00000000
   21600.00000000  1       1.00000000
   21600.00000000  1       1.00000000
   21600.00000000  1       1.00000000
   21600.00000000  1       1.00000000
   21600.00000000  1       1.00000000
   21600.00000000  1       1.00000000
   21600.00000000  1       1.00000000
   21600.00000000  1       1.00000000
   21600.00000000  1       1.00000000
   21600.00000000  1       1.00000000
   21600.00000000  1       1.00000000
   21600.00000000  1       1.00000000
   21600.00000000  1       1.00000000
   21600.00000000  1       1.00000000
   21600.00000000  1       1.00000000
   21600.00000000  1       1.00000000
   21600.00000000  1       1.00000000
   21600.00000000  1       1.00000000
   21600.00000000  1       1.00000000
   21600.00000000  1       1.00000000
   21600.00000000  1       1.00000000
   21600.00000000  1       1.00000000
   21600.00000000  1       1.00000000
   21600.00000000  1       1.00000000
   21600.00000000  1       1.00000000
   21600.00000000  1       1.00000000
   21600.00000000  1       1.00000000
   21600.00000000  1       1.00000000
   21600.00000000  1       1.00000000
   21600.00000000  1       1.00000000
   21600.00000000  1       1.00000000
   21600.00000000  1       1.00000000
   21600.00000000  1       1.00000000
   21600.00000000  1       1.00000000
   21600.00000000  1       1.00000000
   21600.00000000  1       1.00000000
   21600.00000000  1       1.00000000
   21600.00000000  1       1.00000000
   21600.00000000  1       1.00000000
   21600.00000000  1       1.00000000
   21600.00000000  1       1.00000000
   21600.00000000  1       1.00000000
   21600.00000000  1       1.00000000
   21600.00000000  1       1.00000000
   21600.00000000  1       1.00000000
   21600.00000000  1       1.00000000
   21600.00000000  1       1.00000000
   21600.00000000  1       1.00000000
   21600.00000000  1       1.00000000
   21600.00000000  1       1.00000000
   21600.00000000  1       1.00000000
   21600.00000000  1       1.00000000
   21600.00000000  1       1.00000000
   21600.00000000  1       1.00000000
   21600.00000000  1       1.00000000
   21600.00000000  1       1.00000000
   21600.00000000  1       1.00000000
   21600.00000000  1       1.00000000
   21600.00000000  1       1.00000000
   21600.00000000  1       1.00000000
   21600.00000000  1       1.00000000
   21600.00000000  1       1.00000000
   21600.00000000  1       1.00000000
   21600.00000000  1       1.00000000
   21600.00000000  1       1.00000000
   21600.00000000  1       1.00000000
   21600.00000000  1       1.00000000
   21600.00000000  1       1.00000000
   21600.00000000  1       1.00000000
   21600.00000000  1       1.00000000
   21600.00000000  1       1.00000000
   21600.00000000  1       1.00000000
   21600.00000000  1       1.00000000
   21600.00000000  1       1.00000000
   21600.00000000  1       1.00000000
   21600.00000000  1       1.00000000
   21600.00000000  1       1.00000000
   21600.00000000  1       1.00000000
   21600.00000000  1       1.00000000
   21600.00000000  1       1.00000000
   21600.00000000  1       1.00000000
   21600.00000000  1       1.00000000
   21600.00000000  1       1.00000000
   21600.00000000  1       1.00000000
   21600.00000000  1       1.00000000
   21600.00000000  1       1.00000000
   21600.00000000  1       1.00000000
   21600.00000000  1       1.00000000
   21600.00000000  1       1.00000000
   21600.00000000  1       1.00000000
   21600.00000000  1       1.00000000
   21600.00000000  1       1.00000000
   21600.00000000  1       1.00000000
   21600.00000000  1       1.00000000
   21600.00000000  1       1.00000000
   21600.00000000  1       1.00000000
   21600.00000000  1       1.00000000
   21600.00000000  1       1.00000000
   21600.00000000  1       1.00000000
   21600.00000000  1       1.00000000
   21600.00000000  1       1.00000000
   21600.00000000  1       1.00000000
   21600.00000000  1       1.00000000
   21600.00000000  1       1.00000000
   21600.00000000  1       1.00000000
   21600.00000000  1       1.00000000
   21600.00000000  1       1.00000000
   21600.00000000  1       1.00000000
   21600.00000000  1       1.00000000
   21600.00000000  1       1.00000000
   21600.00000000  1       1.00000000
   21600.00000000  1       1.00000000
   21600.00000000  1       1.00000000
   21600.00000000  1       1.00000000
   21600.00000000  1       1.00000000
   21600.00000000  1       1.00000000
   21600.00000000  1       1.00000000
   21600.00000000  1       1.00000000
   21600.00000000  1       1.00000000
   21600.00000000  1       1.00000000
   21600.00000000  1       1.00000000
   21600.00000000  1       1.00000000
   21600.00000000  1       1.00000000
   21600.00000000  1       1.00000000
   21600.00000000  1       1.00000000
   21600.00000000  1       1.00000000
   21600.00000000  1       1.00000000
   21600.00000000  1       1.00000000
   21600.00000000  1       1.00000000
   21600.00000000  1       1.00000000
   21600.00000000  1       1.00000000
   21600.00000000  1       1.00000000
   21600.00000000  1       1.00000000
   21600.00000000  1       1.00000000
   21600.00000000  1       1.00000000
   21600.00000000  1       1.00000000
   21600.00000000  1       1.00000000
   21600.00000000  1       1.00000000
   21600.00000000  1       1.00000000
   21600.00000000  1       1.00000000
   21600.00000000  1       1.00000000
   21600.00000000  1       1.00000000
   21600.00000000  1       1.00000000
   21600.00000000  1       1.00000000
   21600.00000000  1       1.00000000
   21600.00000000  1       1.00000000
   21600.00000000  1       1.00000000
   21600.00000000  1       1.00000000
   21600.00000000  1       1.00000000
   21600.00000000  1       1.00000000
   21600.00000000  1       1.00000000
   21600.00000000  1       1.00000000
   21600.00000000  1       1.00000000
   21600.00000000  1       1.00000000
   21600.00000000  1       1.00000000
   21600.00000000  1       1.00000000
   21600.00000000  1       1.00000000
   21600.00000000  1       1.00000000
   21600.00000000  1       1.00000000
   21600.00000000  1       1.00000000
   21600.00000000  1       1.00000000
   21600.00000000  1       1.00000000
   21600.00000000  1       1.00000000
   21600.00000000  1       1.00000000
   21600.00000000  1       1.00000000
   21600.00000000  1       1.00000000
   21600.00000000  1       1.00000000
   21600.00000000  1       1.00000000
   21600.00000000  1       1.00000000
   21600.00000000  1       1.00000000
   21600.00000000  1       1.00000000
   21600.00000000  1       1.00000000
   21600.00000000  1       1.00000000
   21600.00000000  1       1.00000000
   21600.00000000  1       1.00000000
   21600.00000000  1       1.00000000
   21600.00000000  1       1.00000000
   21600.00000000  1       1.00000000
   21600.00000000  1       1.00000000
   21600.00000000  1       1.00000000
   21600.00000000  1       1.00000000
   21600.00000000  1       1.00000000
   21600.00000000  1       1.00000000
   21600.00000000  1       1.00000000
   21600.00000000  1       1.00000000
   21600.00000000  1       1.00000000
   21600.00000000  1       1.00000000
   21600.00000000  1       1.00000000
   21600.00000000  1       1.00000000
   21600.00000000  1       1.00000000
   21600.00000000  1       1.00000000
   21600.00000000  1       1.00000000
   21600.00000000  1       1.00000000
   21600.00000000  1       1.00000000
   21600.00000000  1       1.00000000
   21600.00000000  1       1.00000000
   21600.00000000  1       1.00000000
   21600.00000000  1       1.00000000
   21600.00000000  1       1.00000000
   21600.00000000  1       1.00000000
   21600.00000000  1       1.00000000
   21600.00000000  1       1.00000000
   21600.00000000  1       1.00000000
   21600.00000000  1       1.00000000
   21600.00000000  1       1.00000000
   21600.00000000  1       1.00000000
   21600.00000000  1       1.00000000
   21600.00000000  1       1.00000000
   21600.00000000  1       1.00000000
   21600.00000000  1       1.00000000
   21600.00000000  1       1.00000000
   21600.00000000  1       1.00000000
   21600.00000000  1       1.00000000
   21600.00000000  1       1.00000000
   21600.00000000  1       1.00000000
   21600.00000000  1       1.00000000
   21600.00000000  1       1.00000000
   21600.00000000  1       1.00000000
   21600.00000000  1       1.00000000
   21600.00000000  1       1.00000000
   21600.00000000  1       1.00000000
   21600.00000000  1       1.00000000
   21600.00000000  1       1.00000000
   21600.00000000  1       1.00000000
   21600.00000000  1       1.00000000
   21600.00000000  1       1.00000000
   21600.00000000  1       1.00000000
   21600.00000000  1       1.00000000
   21600.00000000  1       1.00000000
   21600.00000000  1       1.00000000
   21600.00000000  1       1.00000000
   21600.00000000  1       1.00000000
   21600.00000000  1       1.00000000
   21600.00000000  1       1.00000000
   21600.00000000  1       1.00000000
   21600.00000000  1       1.00000000
   21600.00000000  1       1.00000000
   21600.00000000  1       1.00000000
   21600.00000000  1       1.00000000
   21600.00000000  1       1.00000000
   21600.00000000  1       1.00000000
   21600.00000000  1       1.00000000
   21600.00000000  1       1.00000000
   21600.00000000  1       1.00000000
   21600.00000000  1       1.00000000
   21600.00000000  1       1.00000000
   21600.00000000  1       1.00000000
   21600.00000000  1       1.00000000
   21600.00000000  1       1.00000000
   21600.00000000  1       1.00000000
   21600.00000000  1       1.00000000
   21600.00000000  1       1.00000000
   21600.00000000  1       1.00000000
   21600.00000000  1       1.00000000
   21600.00000000  1       1.00000000
   21600.00000000  1       1.00000000
   21600.00000000  1       1.00000000
   21600.00000000  1       1.00000000
   21600.00000000  1       1.00000000
   21600.00000000  1       1.00000000
   21600.00000000  1       1.00000000
   21600.00000000  1       1.00000000
   21600.00000000  1       1.00000000
   21600.00000000  1       1.00000000
   21600.00000000  1       1.00000000
   21600.00000000  1       1.00000000
   21600.00000000  1       1.00000000
   21600.00000000  1       1.00000000
   21600.00000000  1       1.00000000
   21600.00000000  1       1.00000000
   21600.00000000  1       1.00000000
   21600.00000000  1       1.00000000
   21600.00000000  1       1.00000000
   21600.00000000  1       1.00000000
   21600.00000000  1       1.00000000
   21600.00000000  1       1.00000000
   21600.00000000  1       1.00000000
   21600.00000000  1       1.00000000
   21600.00000000  1       1.00000000
   21600.00000000  1       1.00000000
   21600.00000000  1       1.00000000
   21600.00000000  1       1.00000000
   21600.00000000  1       1.00000000
   21600.00000000  1       1.00000000
   21600.00000000  1       1.00000000
   21600.00000000  1       1.00000000
   21600.00000000  1       1.00000000
   21600.00000000  1       1.00000000
   21600.00000000  1       1.00000000
   21600.00000000  1       1.00000000
   21600.00000000  1       1.00000000
   21600.00000000  1       1.00000000
   21600.00000000  1       1.00000000
   21600.00000000  1       1.00000000
   21600.00000000  1       1.00000000
   21600.00000000  1       1.00000000
   21600.00000000  1       1.00000000
   21600.00000000  1       1.00000000
   21600.00000000  1       1.00000000
   21600.00000000  1       1.00000000
   21600.00000000  1       1.00000000
   21600.00000000  1       1.00000000
   21600.00000000  1       1.00000000
   21600.00000000  1       1.00000000
   21600.00000000  1       1.00000000
   21600.00000000  1       1.00000000
   21600.00000000  1       1.00000000
   21600.00000000  1       1.00000000
   21600.00000000  1       1.00000000
   21600.00000000  1       1.00000000
   21600.00000000  1       1.00000000
   21600.00000000  1       1.00000000
   21600.00000000  1       1.00000000
   21600.00000000  1       1.00000000
   21600.00000000  1       1.00000000
   21600.00000000  1       1.00000000
   21600.00000000  1       1.00000000
   21600.00000000  1       1.00000000
   21600.00000000  1       1.00000000
   21600.00000000  1       1.00000000
   21600.00000000  1       1.00000000
   21600.00000000  1       1.00000000
   21600.00000000  1       1.00000000
   21600.00000000  1       1.00000000
   21600.00000000  1       1.00000000
   21600.00000000  1       1.00000000
   21600.00000000  1       1.00000000
   21600.00000000  1       1.00000000
   21600.00000000  1       1.00000000
   21600.00000000  1       1.00000000
   21600.00000000  1       1.00000000
   21600.00000000  1       1.00000000
   21600.00000000  1       1.00000000
   21600.00000000  1       1.00000000
   21600.00000000  1       1.00000000
   21600.00000000  1       1.00000000
   21600.00000000  1       1.00000000