# File generated by Flopy version 3.7.0 on 06/13/2024 at 12:33:36.
BEGIN options
END options

BEGIN griddata
  strt
    INTERNAL  FACTOR  1.0
        15.00000000      15.00000000      15.00000000      15.00000000      15.00000000      15.00000000      15.00000000      15.00000000      15.00000000      15.00000000      15.00000000      15.00000000      15.00000000      15.00000000      15.00000000      15.00000000      15.00000000      15.00000000      15.00000000      15.00000000
        15.00000000      15.00000000      15.00000000      15.00000000      15.00000000      15.00000000      15.00000000      15.00000000      15.00000000      15.00000000      15.00000000      15.00000000      15.00000000      15.00000000      15.00000000      15.00000000      15.00000000      15.00000000      15.00000000      15.00000000
        15.00000000      15.00000000      15.00000000      15.00000000      15.00000000      15.00000000      15.00000000      15.00000000      15.00000000      15.00000000      15.00000000      15.00000000      15.00000000      15.00000000      15.00000000      15.00000000      15.00000000      15.00000000      15.00000000      15.00000000
        15.00000000      15.00000000      15.00000000      15.00000000      15.00000000      15.00000000      15.00000000      15.00000000      15.00000000      15.00000000      15.00000000      15.00000000      15.00000000      15.00000000      15.00000000      15.00000000      15.00000000      15.00000000      15.00000000      15.00000000
        15.00000000      15.00000000      15.00000000      15.00000000      15.00000000      15.00000000      15.00000000      15.00000000      15.00000000      15.00000000      15.00000000      15.00000000      15.00000000      15.00000000      15.00000000      15.00000000      15.00000000      15.00000000      15.00000000      15.00000000
        15.02792279      15.02945192      15.03099782      15.03394003      15.03928881      15.04699081      15.05293970      15.05723152      15.06511991      15.07796079      15.09429201      15.10901297      15.11165604      15.09948091      15.07884140      15.06221857      15.05129871      15.04252593      15.03688444      15.03499405
        15.03377042      15.03092117      15.02648893      15.02169389      15.01831387      15.01650894      15.01581661      15.01769526      15.02563459      15.04513607      15.07441519      15.10603214      15.12948613      15.14659937      15.15718781      15.15699341      15.14006529      15.11840343      15.09163356      15.07204006
        15.06314447      15.05972895      15.06210995      15.07912527      15.09601867      15.10183332      15.10554009      15.11593047      15.12517360      15.12593115      15.12293237      15.11791520      15.10857529      15.09549981      15.08492282      15.08709560      15.09155578      15.09611769      15.10593606      15.12306335
        15.13893196      15.13509463      15.11791945      15.10439087      15.09978277      15.09385604      15.09285426      15.09152170      15.08838858      15.07846105      15.06100580      15.04285273      15.02984178      15.01998621      15.01465566      15.01316743      15.01362535      15.01552173      15.01785787      15.02021848
        15.02270464      15.02691865      15.03207715      15.03527280      15.03651555      15.03474046      15.03205172      15.03093003      15.03243734      15.03746763      15.04874366      15.06489463      15.08076806      15.09891848      15.11944920      15.15331941      15.19300123      15.22367213      15.23403556      15.23585326
        15.05859995      15.06142078      15.06598199      15.07564446      15.08904740      15.10352593      15.11386663      15.12198773      15.13402225      15.15561231      15.17725456      15.18694890      15.17894211      15.15522685      15.12790547      15.10438839      15.08936088      15.07998408      15.07463435      15.07057129
        15.06574175      15.06010949      15.05247742      15.04458997      15.03756688      15.03369773      15.03443381      15.04421619      15.07129952      15.11614789      15.16420860      15.20440354      15.23507507      15.25799483      15.27243788      15.27317146      15.25263251      15.22416627      15.19783352      15.17655860
        15.16222561      15.16359550      15.18239106      15.20192797      15.21581463      15.22089780      15.23197857      15.24432360      15.25200536      15.24576545      15.23662615      15.22156909      15.20613059      15.18872970      15.17960882      15.18281605      15.19086355      15.20239110      15.22006540      15.24127922
        15.25729044      15.25766023      15.25156249      15.24910375      15.24122976      15.22601098      15.21217492      15.19282244      15.16503817      15.13290450      15.10389583      15.07775826      15.05730211      15.04309476      15.03593970      15.03350624      15.03479200      15.03707843      15.04030877      15.04507976
        15.05200694      15.05956505      15.06598011      15.06968549      15.07147437      15.07227167      15.07475427      15.08285809      15.09625921      15.11859728      15.14134205      15.16254427      15.18315514      15.21358592      15.25319717      15.29468666      15.32014827      15.33323613      15.34994297      15.36430548
        15.08170655      15.08657075      15.09683631      15.11264249      15.13076995      15.14625746      15.16262615      15.18160378      15.20333586      15.22555026      15.23985369      15.24038724      15.22963491      15.20834702      15.18149764      15.15485201      15.13601101      15.12386779      15.11356024      15.10326217
        15.09453873      15.08667354      15.07748279      15.06827029      15.06230702      15.06176760      15.07153330      15.09456441      15.13806570      15.19074367      15.23700955      15.27766841      15.31652709      15.34535494      15.36249198      15.37138707      15.36547097      15.35143795      15.34447982      15.33667881
        15.32656646      15.32994159      15.34450225      15.34784264      15.34787792      15.34410018      15.34110437      15.33328324      15.32139212      15.30918511      15.29638522      15.28174406      15.26663885      15.25493340      15.25025884      15.25088711      15.26032953      15.27960293      15.30271390      15.32542297
        15.34102877      15.35270659      15.36202219      15.36230843      15.34606083      15.32115439      15.29073969      15.25736708      15.21841417      15.17958002      15.14484049      15.11730129      15.09452184      15.07709821      15.06600695      15.06213461      15.06368553      15.06606774      15.06986076      15.07481994
        15.08110836      15.08578420      15.08899589      15.09203349      15.09661227      15.10763156      15.13055717      15.16770109      15.21406912      15.25722981      15.28306039      15.30913686      15.34480360      15.38157435      15.41819267      15.44062835      15.45045821      15.45887573      15.47236437      15.48332658
        15.10786474      15.11297088      15.12611303      15.14610325      15.16796951      15.19193032      15.21849604      15.24369247      15.26708639      15.28365573      15.28979427      15.28711650      15.27462798      15.25620327      15.23184473      15.20255997      15.17672013      15.15834948      15.14341149      15.13051813
        15.11964568      15.11185833      15.10507716      15.10055845      15.10070270      15.10903892      15.12683033      15.15779759      15.20383702      15.25263647      15.30449083      15.35807894      15.40011596      15.42925183      15.45106690      15.46688957      15.47491172      15.47570036      15.47960017      15.48071292
        15.47456472      15.46666786      15.46156918      15.45354081      15.44134134      15.42614274      15.40713582      15.38408344      15.36098354      15.34261429      15.32901401      15.31813556      15.30978563      15.30566764      15.30543809      15.31216099      15.32910934      15.35085762      15.37465662      15.39490245
        15.40991162      15.42088175      15.42216425      15.41379240      15.39686922      15.36991415      15.33616927      15.30093054      15.26571482      15.23173228      15.19931906      15.17266110      15.14956172      15.12804822      15.11196403      15.10314074      15.10009506      15.09933771      15.09921672      15.09930403
        15.09918810      15.09968447      15.10135227      15.10683379      15.12050973      15.15344635      15.21035163      15.28870627      15.36836110      15.43163872      15.47378255      15.50780887      15.54333120      15.56251154      15.57158499      15.57156431      15.56843798      15.56327618      15.55486899      15.54894903
        15.14527571      15.15650338      15.17837703      15.20514662      15.22794141      15.25249385      15.27635215      15.29603512      15.31122324      15.31818672      15.31750091      15.31194062      15.30076015      15.28312514      15.25892813      15.22966778      15.20142807      15.17955634      15.16355640      15.15189051
        15.14447872      15.14196204      15.14300380      15.15047416      15.16344966      15.18188802      15.20531644      15.24636104      15.30378678      15.36620894      15.42120933      15.46089124      15.48427193      15.50350703      15.52271962      15.53521287      15.54394122      15.54779769      15.54628738      15.54287984
        15.53691603      15.52651144      15.51834286      15.50870248      15.49459167      15.47788606      15.45930880      15.43724630      15.41336326      15.39634286      15.38612849      15.38191685      15.38491094      15.38902831      15.39670127      15.40860590      15.42071955      15.43174940      15.44367048      15.45133740
        15.45503987      15.45382464      15.44906876      15.43859283      15.42207479      15.39945615      15.37177207      15.33999061      15.31095934      15.28694970      15.26420662      15.24191372      15.21923582      15.19262438      15.16965160      15.14995418      15.13461935      15.12507847      15.11835240      15.11427116
        15.11207036      15.11214525      15.11641489      15.12832775      15.15938197      15.22274002      15.32427163      15.43011176      15.51922177      15.58422434      15.62639361      15.64864401      15.66045598      15.65911835      15.64829638      15.63288947      15.61680541      15.60139133      15.58776302      15.57805153
        15.22386578      15.23853754      15.26373410      15.28472355      15.29663648      15.30611719      15.31563546      15.32508510      15.33060660      15.33118571      15.32796733      15.32162327      15.31135560      15.29485174      15.27139975      15.24287738      15.21523920      15.19300052      15.17677374      15.16681463
        15.16491146      15.17004490      15.18152438      15.20174254      15.23056375      15.26231198      15.30555883      15.36832481      15.43687594      15.49000660      15.52066728      15.53592638      15.54441930      15.55267118      15.56027440      15.56524104      15.56765923      15.56796112      15.56647320      15.56311545
        15.55830448      15.55234177      15.54523034      15.53604835      15.52546081      15.51199300      15.49730618      15.48672010      15.47718463      15.47257093      15.47493651      15.47994370      15.48744415      15.49272240      15.49590860      15.49926768      15.49964061      15.49617347      15.49077577      15.48609987
        15.48117888      15.47628834      15.47031265      15.46102944      15.44515016      15.42490369      15.40085760      15.37459023      15.35015176      15.33172173      15.31660756      15.30106409      15.28311960      15.25528586      15.22175838      15.19087152      15.16504903      15.14719085      15.13715923      15.13360650
        15.13514872      15.14092211      15.15245991      15.17948697      15.23898680      15.34180388      15.46121608      15.55722199      15.62720294      15.66905444      15.69289864      15.70234858      15.70092956      15.69112004      15.67494155      15.65535930      15.63699294      15.62175926      15.61054705      15.60509458
        15.34810772      15.35255534      15.35619740      15.35135116      15.34604838      15.34179619      15.33922107      15.34044882      15.34113899      15.33981936      15.33590631      15.32857665      15.31762282      15.30177354      15.27969852      15.25110510      15.22140190      15.19776352      15.18136026      15.17333988
        15.17554628      15.18831653      15.21138969      15.24481113      15.28418304      15.32775897      15.38858893      15.46006797      15.51591062      15.54530899      15.55815381      15.56419759      15.56781223      15.57060159      15.57262246      15.57360334      15.57403859      15.57426714      15.57412505      15.57323130
        15.57147069      15.56818272      15.56192572      15.55384564      15.54674614      15.54146473      15.53681114      15.53570389      15.53920867      15.54353669      15.54961338      15.55599990      15.55859444      15.55993324      15.55928787      15.55461469      15.54646694      15.53467904      15.52206233      15.51180931
        15.50368282      15.49910975      15.49678349      15.48943498      15.47385473      15.45092929      15.42673792      15.40255451      15.38050299      15.36328489      15.35005729      15.33750764      15.32316068      15.30089455      15.26695626      15.23210234      15.20463292      15.18824741      15.18440788      15.18461552
        15.18616492      15.19805514      15.22644871      15.27832015      15.36703606      15.47873942      15.57318410      15.63869517      15.67959647      15.70306997      15.71729739      15.72343079      15.72100814      15.71190120      15.69775231      15.68096333      15.66556691      15.65328927      15.64377201      15.64062719
        15.48728427      15.46922908      15.43977565      15.41441016      15.39693933      15.38354130      15.37257325      15.36361376      15.35685942      15.35114345      15.34489191      15.33642062      15.32495995      15.30822327      15.28488978      15.25577784      15.22403354      15.19652187      15.17794603      15.16854373
        15.17634503      15.20190538      15.23967230      15.28194662      15.32694978      15.38168683      15.44968898      15.50947239      15.54355948      15.55866246      15.56546313      15.56957744      15.57243347      15.57449547      15.57583650      15.57675755      15.57766291      15.57883570      15.58012823      15.58150674
        15.58214873      15.58091419      15.57705532      15.57319173      15.57097435      15.57230675      15.57748034      15.58345492      15.59045141      15.59844241      15.60492675      15.60820200      15.60647905      15.60422025      15.60132119      15.59260178      15.58016515      15.56710716      15.55583210      15.54612463
        15.53837490      15.53682315      15.53889504      15.53304687      15.51671333      15.48953194      15.45893088      15.43083480      15.40570341      15.38809895      15.37575298      15.36275457      15.34944346      15.33314597      15.30948213      15.28101847      15.25862715      15.25033616      15.25171791      15.25226747
        15.25687513      15.27634316      15.32037685      15.39343585      15.48887813      15.57651190      15.63582378      15.67505306      15.70476243      15.72541644      15.73809721      15.74204378      15.73895509      15.73187110      15.72216474      15.71129430      15.70004331      15.69046089      15.68308408      15.68071602
        15.58408039      15.55799550      15.51659308      15.47955447      15.45357185      15.43407258      15.41438369      15.39431314      15.37789206      15.36703628      15.35762993      15.34663898      15.33309951      15.31479732      15.29067774      15.25930741      15.22365219      15.19014800      15.16326998      15.15125054
        15.16665977      15.20991499      15.26205759      15.31403302      15.37308456      15.43812477      15.49641163      15.53271541      15.55018914      15.55912695      15.56549633      15.57006186      15.57333983      15.57594800      15.57789667      15.57946911      15.58125535      15.58353668      15.58622587      15.58939404
        15.59243541      15.59440354      15.59647780      15.60135015      15.60636326      15.61185801      15.61962880      15.62954017      15.64235825      15.65263855      15.65519944      15.65207371      15.64760033      15.64126448      15.63201457      15.62217618      15.61284228      15.60674726      15.60429360      15.60292882
        15.60205163      15.61121187      15.61327533      15.60208955      15.57765567      15.54592867      15.50913689      15.47610660      15.45460888      15.44098217      15.42616021      15.41255831      15.40123546      15.39175079      15.37412744      15.35300701      15.34035885      15.33052096      15.32460269      15.32319627
        15.34072889      15.37851781      15.43340431      15.50488557      15.57898549      15.63700215      15.67910725      15.71287314      15.73797578      15.75392767      15.76156044      15.76244217      15.75909848      15.75317017      15.74571241      15.73758612      15.72939068      15.72348961      15.72380385      15.72634644
        15.64564987      15.61869865      15.58080503      15.53982084      15.50303348      15.47307943      15.44832985      15.42505810      15.40486802      15.38932490      15.37457367      15.35898801      15.34167237      15.32081016      15.29465905      15.26270474      15.22805778      15.19159753      15.15850826      15.14433629
        15.14307738      15.14676765      15.14492812      15.15684827      15.21458749      15.28289357      15.35167095      15.42053458      15.47828562      15.51654523      15.53749625      15.54910901      15.55700811      15.56381538      15.56951093      15.57383450      15.57703532      15.57965055      15.58258914      15.58630182
        15.59031773      15.59456536      15.59948559      15.60565835      15.61386035      15.62471391      15.63655588      15.64724321      15.65719984      15.67015944      15.68619790      15.69832116      15.70071810      15.69480810      15.68717723      15.68054431      15.67259247      15.66385700      15.65833588      15.65831692
        15.66405481      15.67707393      15.66682592      15.67099011      15.70908992      15.71855298      15.70575991      15.72188121      15.71891595      15.69795038      15.66537055      15.63435567      15.60382997      15.57736468      15.56212395      15.55535650      15.55418113      15.54749895      15.54125809      15.53096828
        15.51338026      15.49473175      15.47509681      15.44459585      15.42361187      15.42818959      15.45799787      15.49996549      15.54456101      15.59685884      15.65061749      15.69246864      15.72510974      15.75081064      15.76874343      15.77877342      15.78175992      15.78043187      15.77608985      15.77026509
        15.76485990      15.75892684      15.75484930      15.75596752      15.76254720      15.76666598      15.69102992      15.66829241      15.63208399      15.59243117      15.55324233      15.51684913      15.48292242      15.45331582      15.42696431      15.40408508      15.38613967      15.36833633      15.34797930      15.32413706
        15.29755908      15.26960086      15.24111714      15.21021437      15.18188286      15.17005002      15.19222813      15.18321426      15.15874915      15.15454338      15.16390512      15.15951301      15.15817914      15.16215419      15.16062039      15.16002976      15.16198689      15.16152004      15.15292550      15.15439136
        15.15705936      15.15732388      15.15963364      15.15941090      15.16125579      15.16095066      15.15998060      15.15928018      15.17184209      15.16635404      15.16420617      15.16351468      15.16599348      15.16558655      15.17006345      15.16911139      15.17926177      15.17683186      15.16319420      15.16321988
        15.16515345      15.16489207      15.16417745      15.16810480      15.16777242      15.16698982      15.17496094      15.17475763      15.16331790      15.17916682      15.17466961      15.18762463      15.22696365      15.30659698      15.38509452      15.45041176      15.49530346      15.52138739      15.53626219      15.54633441
        15.55447022      15.56194581      15.56881453      15.57419013      15.57842863      15.58311799      15.58925074      15.59551227      15.60089094      15.60687818      15.61458701      15.62445732      15.63772229      15.65407623      15.67045251      15.68649421      15.70366140      15.72103605      15.73285923      15.73519812
        15.73086244      15.72488048      15.71891716      15.71378230      15.70932879      15.70879529      15.71541360      15.73029078      15.75112917      15.74670646      15.75216157      15.79474617      15.80506642      15.75163517      15.75515201      15.77296905      15.77307633      15.77482915      15.78339854      15.78347872
        15.78425942      15.78851273      15.78999558      15.76092537      15.76785113      15.77761524      15.78029130      15.78565590      15.78685239      15.79119498      15.79190620      15.79044499      15.78841350      15.80108113      15.79743140      15.79555504      15.79614763      15.80078506      15.80185943      15.80822999
        15.81034170      15.82449355      15.82849306      15.79724728      15.79869223      15.80299913      15.80367038      15.80350028      15.81232722      15.81357833      15.81268818      15.83149671      15.83252408      15.78939569      15.79768181      15.82655416      15.82711645      15.81340993      15.80403200      15.78616334
        15.76383787      15.74426010      15.73105360      15.72219626      15.71485522      15.71464256      15.71982090      15.71585646      15.70697134      15.69006366      15.66822828      15.64632374      15.61766395      15.58298978      15.56418240      15.58068456      15.60224628      15.62076341      15.64465289      15.67930314
        15.71197552      15.73960983      15.76358705      15.78384778      15.79549602      15.79963040      15.79951510      15.79675942      15.79228442      15.78618572      15.78131003      15.77895285      15.78028360      15.78541865      15.78966198      15.79043496      15.71918232      15.70502579      15.67666447      15.64080934
        15.60127219      15.55975001      15.51838400      15.47980829      15.44676083      15.41895705      15.39710551      15.37528643      15.35179051      15.32572664      15.29931683      15.27605076      15.25513112      15.23222957      15.20715765      15.18998230      15.18664412      15.19920102      15.19663242      15.19881644
        15.25315843      15.33460053      15.40651086      15.46221660      15.49859489      15.52050266      15.53379907      15.54340341      15.55195694      15.56020641      15.56868168      15.57727079      15.58575489      15.59493976      15.60391219      15.61223055      15.62070459      15.62892099      15.63732825      15.64891813
        15.66689688      15.68930297      15.71072684      15.72979644      15.74754098      15.75936362      15.76231608      15.76005940      15.75677417      15.75595938      15.75737300      15.75922625      15.76283697      15.77038230      15.78581604      15.80821055      15.83042950      15.84568559      15.84742919      15.85044995
        15.85762726      15.85956580      15.85709326      15.85497862      15.85012407      15.84522645      15.84149004      15.83708298      15.83572945      15.83620762      15.83223745      15.82900029      15.82159844      15.80994180      15.79146520      15.77156676      15.74930993      15.72813348      15.70726539      15.69576557
        15.70000148      15.71564945      15.72377339      15.72901976      15.74230237      15.76106116      15.77995232      15.79756959      15.81219524      15.82162212      15.82395305      15.82269955      15.81926666      15.81540223      15.81242993      15.80896523      15.80645542      15.80665317      15.80761271      15.80824111
        15.80613326      15.80384164      15.73597930      15.72491980      15.70364466      15.67287374      15.63560357      15.59037386      15.54304594      15.50050609      15.46535171      15.43674639      15.41178527      15.38619274      15.35733389      15.32797985      15.30388104      15.28461332      15.26665154      15.24908026
        15.23113695      15.22063968      15.23647112      15.29325111      15.36041233      15.41649534      15.46194991      15.49439335      15.51538726      15.52985141      15.54086073      15.55038389      15.56029782      15.57177720      15.58471357      15.59761498      15.61018618      15.62268816      15.63518263      15.64627252
        15.65606727      15.66820617      15.68746085      15.71173530      15.73329078      15.75253333      15.76896267      15.78155419      15.78721545      15.78811397      15.78836442      15.79209374      15.80101935      15.81168680      15.81776721      15.82365430      15.83088951      15.84193260      15.85490750      15.86387373
        15.86856537      15.87133863      15.87411740      15.87757737      15.88093347      15.88446266      15.88879066      15.89218219      15.89328934      15.89215310      15.88465593      15.87346494      15.85998831      15.84551850      15.82798469      15.80905512      15.79160290      15.77682745      15.76805691      15.77110882
        15.78114196      15.78975187      15.79831047      15.80716910      15.82062759      15.83429100      15.84718533      15.85451962      15.85626718      15.85419947      15.85229918      15.84825395      15.84327164      15.83898393      15.83555680      15.83300302      15.83080533      15.82923453      15.82619446      15.82185158
        15.81705631      15.81386911      15.75033668      15.73785133      15.71408735      15.68278326      15.64514863      15.59976989      15.55374356      15.51355221      15.47879172      15.44902399      15.42193170      15.39403697      15.36586877      15.33907718      15.31549677      15.29766938      15.28161791      15.26574928
        15.25363943      15.25437986      15.27764778      15.32028662      15.36620512      15.41065000      15.45296753      15.48620725      15.50923942      15.52533355      15.53766708      15.54922725      15.56122658      15.57625695      15.59323250      15.60999810      15.62642081      15.64324292      15.65794249      15.67038606
        15.68396727      15.70226679      15.72563605      15.74720337      15.76557915      15.78344937      15.79721134      15.80677619      15.81310021      15.81897536      15.82621362      15.83621338      15.84734752      15.85612140      15.85986190      15.86265782      15.86586089      15.87031888      15.87505364      15.87883791
        15.88171239      15.88507372      15.88906897      15.89442114      15.89972604      15.90671824      15.91339510      15.91710887      15.91729251      15.91304972      15.90422255      15.89281426      15.87966051      15.86546085      15.85202146      15.83938033      15.82902495      15.82028991      15.81770663      15.82106518
        15.83063157      15.84069123      15.84993256      15.85984969      15.86989706      15.87990041      15.88697385      15.88998424      15.88910024      15.88471371      15.87892863      15.87203425      15.86576103      15.86075509      15.85505687      15.84956518      15.84411750      15.83907580      15.83413233      15.82925705
        15.82491866      15.82233840      15.74677770      15.73139580      15.70587987      15.67471724      15.63854242      15.60118698      15.56440325      15.52518525      15.48625325      15.45322801      15.42693082      15.40204404      15.37613710      15.35209699      15.33081173      15.31283616      15.29843478      15.28614132
        15.27822336      15.28129794      15.29994471      15.32955705      15.36310361      15.39752579      15.43454949      15.47075413      15.49753834      15.51629141      15.53045596      15.54508904      15.56116930      15.58006274      15.60166024      15.62324866      15.64326070      15.66129524      15.67617413      15.69044408
        15.70784093      15.72846500      15.75078905      15.77156016      15.79028057      15.80558416      15.81803285      15.82989696      15.84177553      15.85252607      15.86156346      15.86821753      15.87268663      15.87530603      15.87683438      15.87754192      15.87968976      15.88303849      15.88619283      15.88944540
        15.89322154      15.89772440      15.90207864      15.90693176      15.91330842      15.91979129      15.92405395      15.92614640      15.92558504      15.92149299      15.91390500      15.90423488      15.89356089      15.88204644      15.87063014      15.86195799      15.85753993      15.85546998      15.85734970      15.86380422
        15.87233814      15.87967834      15.88602857      15.89265900      15.89988295      15.90675407      15.91152512      15.91518997      15.91430705      15.90879645      15.89997939      15.89097959      15.88209360      15.87423166      15.86673080      15.85959950      15.85237250      15.84579029      15.84052475      15.83613456
        15.83237921      15.83006084      15.72919959      15.71566650      15.69236314      15.66435274      15.63220462      15.59511411      15.55483951      15.51511342      15.48130208      15.45515616      15.43270861      15.41067871      15.38738705      15.36491952      15.34587129      15.32958940      15.31552284      15.30369481
        15.29705242      15.29873779      15.30948434      15.32775857      15.35251151      15.38169853      15.41229654      15.44493728      15.47505732      15.49781970      15.51581014      15.53472035      15.55578173      15.57976189      15.60585909      15.62985566      15.65088320      15.66943506      15.68588956      15.70354880