# File generated by Flopy version 3.7.0 on 06/28/2024 at 12:37:21.
BEGIN options
END options

BEGIN dimensions
  MAXBOUND  5
END dimensions

BEGIN period  1
  1 1138 0.00000000E+00
  1 1223 -5.00000000E-03
  1 3240 -2.50000000E-02
  1 3345 0.00000000E+00
  1 4389 0.00000000E+00
END period  1

