# File generated by Flopy version 3.7.0 on 06/07/2024 at 13:36:15.
BEGIN options
END options

BEGIN griddata
  strt
    INTERNAL  FACTOR  1.0
        15.00000000      15.00000000      15.00000000      15.00000000      15.00000000      15.00000000      15.00000000      15.00000000      15.00000000      15.00000000      15.00000000      15.00000000      15.00000000      15.00000000      15.00000000      15.00000000      15.00000000      15.00000000      15.00000000      15.00000000
        15.00000000      15.00000000      15.00000000      15.00000000      15.00000000      15.00000000      15.00000000      15.00000000      15.00000000      15.00000000      15.00000000      15.00000000      15.00000000      15.00000000      15.00000000      15.00000000      15.00000000      15.00000000      15.00000000      15.00000000
        15.00000000      15.00000000      15.00000000      15.00000000      15.00000000      15.00000000      15.00000000      15.00000000      15.00000000      15.00000000      15.00000000      15.00000000      15.00000000      15.00000000      15.00000000      15.00000000      15.00000000      15.00000000      15.00000000      15.00000000
        15.00000000      15.00000000      15.00000000      15.00000000      15.00000000      15.00000000      15.00000000      15.00000000      15.00000000      15.00000000      15.00000000      15.00000000      15.00000000      15.00000000      15.00000000      15.00000000      15.00000000      15.00000000      15.00000000      15.00000000
        15.00000000      15.00000000      15.00000000      15.00000000      15.00000000      15.00000000      15.00000000      15.00000000      15.00000000      15.00000000      15.00000000      15.00000000      15.00000000      15.00000000      15.00000000      15.00000000      15.00000000      15.00000000      15.00000000      15.00000000
        15.06450828      15.07053837      15.09076285      15.11455143      15.13651113      15.13973111      15.13516637      15.11945744      15.10245093      15.08654798      15.08065122      15.07356590      15.06409927      15.05713968      15.04754605      15.03574919      15.02359420      15.01504963      15.01004254      15.00800475
        15.00943091      15.01239163      15.01513367      15.01656870      15.01715226      15.01648153      15.01597048      15.01727512      15.02583832      15.04765979      15.06934435      15.08803229      15.10350388      15.10952190      15.10801231      15.10753576      15.10852398      15.11070535      15.11042737      15.10417424
        15.09101938      15.07666823      15.06482522      15.06058603      15.06543293      15.07386803      15.07852911      15.07376068      15.06601568      15.06547025      15.07290032      15.08569059      15.09810711      15.11018363      15.12131344      15.12720022      15.12973984      15.13439587      15.13460327      15.13386812
        15.12607924      15.11132248      15.10086491      15.09408738      15.08686257      15.07739095      15.06999504      15.06378691      15.06026350      15.05509065      15.04789017      15.04414423      15.03964502      15.03846438      15.03982134      15.03983900      15.04267066      15.04370786      15.04433370      15.05035797
        15.07165230      15.10875113      15.15285388      15.19889880      15.24275087      15.28655492      15.33971402      15.38097920      15.41177553      15.40840207      15.38214215      15.34981618      15.32471657      15.29983751      15.26208972      15.23213496      15.22233674      15.21879745      15.22405258      15.23494840
        15.14971109      15.17304313      15.20762685      15.24174617      15.26298695      15.26309969      15.25424575      15.23265025      15.20799702      15.18707641      15.17033371      15.14939391      15.12518068      15.10602836      15.08899441      15.07069425      15.05114100      15.03723985      15.03067555      15.02927600
        15.03045328      15.03189836      15.03275057      15.03196179      15.03212698      15.03471434      15.04070924      15.05823721      15.08443586      15.11129071      15.12739782      15.13980907      15.14747187      15.15206015      15.15339133      15.15614013      15.16143446      15.16227482      15.15646390      15.14545557
        15.12943661      15.11438229      15.10524526      15.10300270      15.10803996      15.11109363      15.11150824      15.11206875      15.11848161      15.12875946      15.14231622      15.15578383      15.16430807      15.16857695      15.17236243      15.17766696      15.18213363      15.18343558      15.18128209      15.17554181
        15.16866757      15.16149306      15.15552036      15.15227706      15.14785145      15.13868406      15.12880393      15.11474297      15.10156166      15.09385767      15.08964532      15.08668863      15.08411245      15.08574716      15.09110653      15.09698270      15.10535593      15.12251325      15.13879080      15.17922764
        15.24905752      15.31822335      15.37328165      15.43337672      15.49533958      15.55847832      15.60865450      15.62980076      15.63614645      15.61425195      15.57836861      15.54164676      15.51262296      15.48919242      15.47333607      15.46550590      15.46124995      15.45251315      15.43426023      15.42978634
        15.24892622      15.27792672      15.31460244      15.34248074      15.34868974      15.33936534      15.32140253      15.29903612      15.27426322      15.24875827      15.22023292      15.19156616      15.16298019      15.13947144      15.11931301      15.10007389      15.08079027      15.06718118      15.06304762      15.06409005
        15.06249747      15.05909225      15.05836182      15.05984259      15.06533191      15.07534598      15.09106774      15.11411216      15.13369044      15.14503337      15.15338379      15.16087267      15.16662277      15.17140928      15.17744893      15.18296046      15.18607256      15.18485669      15.17847641      15.16861789
        15.15658726      15.14644398      15.14114631      15.14118406      15.14197563      15.14374274      15.14837086      15.15933785      15.17350242      15.18250222      15.18660470      15.18939796      15.18946226      15.19189700      15.19696790      15.20169621      15.20386108      15.20231343      15.19960156      15.19553924
        15.19039483      15.18567538      15.18192513      15.18038402      15.17914598      15.17403493      15.16429246      15.15387766      15.14181940      15.13816698      15.13952166      15.13587064      15.14129626      15.16474283      15.20623574      15.25020883      15.27702527      15.30754592      15.35562054      15.41444740
        15.46847319      15.50807784      15.53428763      15.57602591      15.62446658      15.66533927      15.68781457      15.69585544      15.69452534      15.68533484      15.67298669      15.66101618      15.64950114      15.63809540      15.63335197      15.62539285      15.61597617      15.60612830      15.59490032      15.58826118
        15.37141002      15.38430940      15.40098591      15.40526738      15.39726976      15.38040463      15.35635179      15.33042374      15.30505726      15.27771341      15.24629691      15.21585928      15.18708236      15.16180370      15.14171504      15.12561238      15.11126044      15.10077849      15.09674813      15.09721909
        15.09619016      15.09356535      15.09360580      15.09742981      15.10389836      15.11410614      15.12644977      15.13689519      15.14579871      15.15457781      15.16316876      15.17179479      15.18277199      15.19304068      15.20062748      15.20350467      15.20298422      15.19918756      15.19421123      15.18872365
        15.18586875      15.18502920      15.18419644      15.18505209      15.18348117      15.18588776      15.19295996      15.20054111      15.20567913      15.20726242      15.20751854      15.20842728      15.21112646      15.21558534      15.21877228      15.22019692      15.21915937      15.21712133      15.21407138      15.21067610
        15.20823868      15.20664198      15.20611076      15.20613307      15.20537474      15.20306694      15.19760581      15.19448158      15.19229082      15.19655277      15.20349680      15.22350332      15.27743547      15.33990280      15.40403527      15.46256211      15.49775959      15.52445072      15.56027234      15.58408911
        15.59524495      15.61243843      15.63348024      15.66145629      15.68620844      15.70236598      15.71178710      15.71858316      15.72527091      15.73327169      15.73772683      15.73599672      15.72939117      15.72077053      15.71051745      15.70148065      15.69628467      15.70556601      15.72202627      15.73396036
        15.44444742      15.44047361      15.43705479      15.42923211      15.41483228      15.39605191      15.37383216      15.34838884      15.32149517      15.29230646      15.26032284      15.22893848      15.20365527      15.18326843      15.16324573      15.14688629      15.13553148      15.12807708      15.12276877      15.11970066
        15.11770292      15.11635274      15.11572361      15.11709931      15.12012035      15.12599340      15.13425493      15.14277708      15.15189722      15.16197203      15.17410424      15.18832237      15.20347400      15.21334656      15.21678951      15.21621148      15.21439248      15.21293798      15.21578093      15.22110349
        15.22645220      15.23111416      15.23293023      15.23005513      15.22906977      15.23047528      15.23180325      15.23258504      15.23162575      15.23043473      15.23042479      15.23224210      15.23787413      15.24210432      15.24243338      15.23922837      15.23511347      15.23208465      15.22886714      15.22590846
        15.22430884      15.22443337      15.22593283      15.22997673      15.23773375      15.25116882      15.26602545      15.27381437      15.28920062      15.31842604      15.34910875      15.40327652      15.47662723      15.54102247      15.58518298      15.61585002      15.63259079      15.63910326      15.64417574      15.65272315
        15.66403747      15.67547284      15.68812615      15.69785091      15.70583713      15.71492204      15.72451914      15.73551776      15.74793230      15.75867880      15.76465816      15.76691050      15.76769908      15.76816637      15.76741130      15.77307853      15.79027636      15.80964027      15.82175813      15.82673080
        15.45654846      15.45103034      15.44252097      15.43140811      15.41616335      15.39814055      15.37744480      15.35554515      15.33257268      15.30612760      15.27698029      15.24623495      15.21841820      15.19680709      15.17851906      15.16246941      15.14988771      15.14119375      15.13491242      15.13000749
        15.12614842      15.12334949      15.12253094      15.12386107      15.12743024      15.13390903      15.14250409      15.15253895      15.16514029      15.17919556      15.19461229      15.20965458      15.22094997      15.22657445      15.22869294      15.23145119      15.23547479      15.24186789      15.25229497      15.26296041
        15.27131639      15.27403890      15.27409567      15.26954358      15.26633317      15.26415826      15.26151371      15.26083028      15.25881546      15.25764070      15.25844010      15.26106053      15.26430355      15.26568136      15.26501067      15.26201487      15.25941193      15.25851161      15.25509788      15.24847734
        15.24793659      15.25725263      15.27974406      15.30784747      15.33208735      15.35575166      15.37997528      15.40280453      15.43636056      15.47246623      15.51304296      15.56162912      15.61503728      15.66058723      15.68127228      15.68669219      15.68610130      15.68573657      15.68941097      15.69695665
        15.70389216      15.70607786      15.70829861      15.71358499      15.72210418      15.73257644      15.74448605      15.75759400      15.77153507      15.78392962      15.79206344      15.80085077      15.81105056      15.82173707      15.83621892      15.85247636      15.86767784      15.87255875      15.87055011      15.86609276
        15.45120524      15.44543017      15.43616202      15.42345913      15.40841701      15.39258223      15.37688684      15.35971580      15.33866170      15.31544746      15.29111365      15.26338196      15.23579762      15.21214481      15.19065606      15.17154756      15.15693850      15.14678812      15.13966218      15.13389030
        15.12968935      15.12766352      15.12816749      15.13145624      15.13725185      15.14659657      15.15713748      15.16959392      15.18471797      15.20256167      15.21794862      15.22899808      15.23555726      15.24016990      15.24497089      15.25219678      15.26141746      15.27294662      15.28505692      15.29536540
        15.30241592      15.30200281      15.29868200      15.29509119      15.28990430      15.28538443      15.28256000      15.28071035      15.27937135      15.27981589      15.28339956      15.28688078      15.28766828      15.28735853      15.29171022      15.29945021      15.30628371      15.30825443      15.30554920      15.30644074
        15.32434807      15.35983219      15.40047370      15.43454771      15.45902490      15.47693706      15.49545491      15.52200134      15.55210206      15.58207845      15.62158748      15.66327234      15.69727061      15.71307854      15.71590341      15.71433594      15.71467822      15.71746828      15.72104010      15.72282091
        15.72308616      15.72455477      15.72796087      15.73425911      15.74366391      15.75418047      15.76631646      15.77940538      15.79324269      15.80571435      15.82091517      15.84202931      15.86326356      15.87856788      15.89177921      15.89934722      15.90008397      15.89760449      15.89277529      15.88775527
        15.44032638      15.43549893      15.42754194      15.41772038      15.40591348      15.39208986      15.37758523      15.36240518      15.34449314      15.32294959      15.29961478      15.27484703      15.24812906      15.22258239      15.19939711      15.17878590      15.16289324      15.15113417      15.14210522      15.13540279
        15.13147372      15.13281173      15.13833315      15.14531421      15.15344815      15.16332573      15.17488459      15.19102613      15.21169373      15.22735280      15.23771225      15.24583284      15.25129289      15.25581103      15.26230892      15.27148306      15.28380584      15.29896330      15.31343599      15.32256205
        15.32460286      15.32143952      15.31500364      15.30922963      15.30451700      15.30061423      15.29861692      15.29854719      15.30098923      15.30479887      15.30957493      15.31536892      15.32149239      15.32907372      15.34095146      15.35254361      15.35849697      15.35678940      15.35447639      15.36666413
        15.40604421      15.45947829      15.50105717      15.53077638      15.55468035      15.57446223      15.59505896      15.61848880      15.65149894      15.68654593      15.71774840      15.74020461      15.74669618      15.74537349      15.74340612      15.74338077      15.74418895      15.74432375      15.74591546      15.74735669
        15.74993700      15.75152075      15.75359723      15.75782854      15.76573526      15.77602066      15.78816848      15.80164316      15.81852588      15.83896954      15.86484386      15.89089540      15.90641999      15.91278817      15.91473071      15.91432711      15.91192565      15.90897548      15.90624445      15.90499338
        15.43848004      15.43513228      15.42827250      15.41709832      15.40387663      15.39151697      15.37802205      15.36233724      15.34584889      15.33067561      15.31288327      15.28723823      15.25763021      15.22881706      15.20359518      15.18367148      15.16808532      15.15475627      15.13937293      15.12403673
        15.12270442      15.13571896      15.15032211      15.16161344      15.17183910      15.18658721      15.20835679      15.22847683      15.24476580      15.25550573      15.26224569      15.26537149      15.26766189      15.27107211      15.27850643      15.29131643      15.30856911      15.32917050      15.34494020      15.35041861
        15.34639344      15.33841851      15.32928481      15.32195203      15.31748017      15.31595423      15.31924294      15.32519185      15.33111567      15.33741416      15.34667029      15.35862042      15.37052345      15.38338422      15.39137611      15.39641184      15.39847252      15.39436005      15.38449488      15.39047674
        15.44076660      15.50677264      15.56088534      15.60344157      15.63374844      15.66060952      15.68855708      15.71527784      15.74602451      15.76762724      15.77833364      15.77935134      15.77473568      15.77158509      15.77430703      15.78105166      15.78979903      15.80177604      15.80972514      15.80663615
        15.80017992      15.79626788      15.79762038      15.80697393      15.81505561      15.82714390      15.84302778      15.85989235      15.87926275      15.90070696      15.92071321      15.93074090      15.93255377      15.93133828      15.92882438      15.92636683      15.92419238      15.92187930      15.92048641      15.92020771
        15.44002504      15.43643674      15.42827946      15.41613887      15.40295598      15.39037583      15.37811668      15.36634017      15.35306973      15.33767032      15.32034426      15.29592453      15.26596321      15.23659685      15.21146984      15.19246434      15.17548657      15.15276887      15.11069457      15.09009452
        15.08529940      15.04653844      15.04006599      15.09228543      15.13427096      15.16296851      15.18942969      15.21767163      15.24380232      15.26596691      15.28094648      15.28832410      15.29308044      15.29222015      15.28798366      15.28531008      15.28812671      15.29833942      15.31826267      15.34260964
        15.36424903      15.37444136      15.37628751      15.37068436      15.36162631      15.35342631      15.34755756      15.34690646      15.35144722      15.35663972      15.36161529      15.36609321      15.37401882      15.38775930      15.40165143      15.41164301      15.41926081      15.42479365      15.43138968      15.43458910
        15.42426064      15.38851750      15.36837288      15.37476265      15.33637198      15.34326879      15.43771628      15.54126339      15.61658100      15.66594019      15.69913956      15.72993439      15.75656574      15.77835856      15.79485301      15.80444138      15.80730502      15.80641679      15.80687194      15.81493667
        15.82888601      15.84560592      15.86323739      15.87974963      15.88727578      15.88397613      15.87584425      15.87204748      15.87958131      15.89381243      15.90365241      15.91976030      15.93380103      15.94359889      15.95122861      15.96233240      15.97046083      15.96794837      15.96262521      15.95718410
        15.95166514      15.94501930      15.94198692      15.94055725      15.94013122      15.94033362      15.44294494      15.43864305      15.42911759      15.41669531      15.40402801      15.39218811      15.38112092      15.37070094      15.36103947      15.34786774      15.32987678      15.30535615      15.27624660      15.24871457
        15.22594474      15.20608939      15.18492786      15.15200507      15.10291937      15.05556930      15.10530054      15.05657039      15.00389248      14.96789767      14.97922141      14.92794577      14.89567915      14.89935281      14.84504231      14.80934756      14.81076859      14.67936404      14.96765561      14.99379149
        14.90655662      14.93546167      14.84610751      14.87906828      14.80963007      14.86760725      14.91825320      14.97239972      14.98359631      14.91278342      14.84884563      14.81080245      14.88234409      14.86955987      14.94194384      14.92131712      15.00717483      14.97496296      14.84544979      14.88038070
        14.88101792      14.89846389      14.92482735      14.92537869      14.94485481      14.97541043      14.97349274      14.99661724      15.03863198      15.08177655      15.04080424      15.08682081      15.14834048      15.20711378      15.24849627      15.28101435      15.30322332      15.31643605      15.32479980      15.32637082
        15.32388998      15.31995969      15.31565270      15.31574720      15.32645781      15.35126596      15.37671442      15.39695629      15.40671824      15.40742536      15.40355826      15.39781226      15.39265844      15.39126263      15.39317553      15.39591060      15.39634636      15.39620123      15.39563134      15.40189274
        15.41590338      15.43157415      15.44021283      15.44816043      15.45798734      15.46927067      15.47617191      15.47677432      15.46369955      15.41305787      15.36397325      15.43858844      15.39683596      15.29786692      15.25179672      15.26837206      15.19099347      15.14105035      15.14871936      15.05826368
        14.99860024      15.00236721      14.77569385      15.26379411      15.31489064      15.16719895      15.22236201      15.06680753      15.12720019      15.00760730      15.11167002      15.20102229      15.29549807      15.29771385      15.18438362      15.07548871      15.01197961      15.13943789      15.12048353      15.24685878
        15.21875566      15.36158855      15.33161063      15.07619343      15.14058792      15.14449434      15.17732889      15.22536877      15.23361629      15.27159869      15.32520514      15.34416672      15.38529962      15.40623302      15.48553500      15.45243924      15.52095841      15.59577340      15.66941732      15.71214342
        15.74267454      15.76791475      15.78578892      15.79913937      15.80900469      15.81747816      15.82469901      15.83417988      15.85133029      15.87290380      15.89381231      15.91057741      15.92370570      15.93280242      15.93744417      15.94123564      15.94422137      15.94952893      15.96156047      15.97613905
        15.98902822      16.00061098      16.00641012      16.01032681      16.01123398      16.01187020      16.01003893      16.00380002      15.99637903      15.98827914      15.98079944      15.97336022      15.96852273      15.96813319      15.97207384      15.97547572      15.44455981      15.43856828      15.42866513      15.41839762
        15.40801487      15.39694785      15.38726402      15.37783002      15.36825200      15.35635083      15.33927724      15.31840765      15.29399896      15.26943168      15.24878631      15.23157623      15.21367541      15.18790817      15.14537336      15.07211440      15.06889868      15.15276862      15.15502308      15.16565360
        15.23319067      15.27566876      15.30057358      15.32032929      15.33423570      15.34133535      15.34384156      15.34370088      15.34240525      15.34317830      15.34825824      15.36541619      15.39223436      15.42185723      15.43857781      15.44546338      15.44585967      15.44345791      15.43808574      15.43396749
        15.43237460      15.43475897      15.43901230      15.44162632      15.44377274      15.44975491      15.46289727      15.48155865      15.49800360      15.50494118      15.50658566      15.51476985      15.52642404      15.53452843      15.53606150      15.53615309      15.53205236      15.50992847      15.45358180      15.47202530
        15.53207556      15.54726662      15.58273214      15.66233972      15.71070156      15.74038103      15.76081962      15.77700645      15.79055360      15.80283925      15.81648819      15.83180956      15.84889239      15.87067863      15.89553084      15.91670339      15.93296932      15.94360808      15.95307694      15.96181278
        15.96834500      15.97488903      15.98328278      15.99509834      16.01149467      16.02731324      16.03869347      16.04419372      16.04674250      16.04775425      16.04569038      16.04071347      16.03477513      16.02761703      16.01948237      16.01132713      16.00373811      15.99951899      15.99863837      16.00110155
        16.00702278      16.01185299      15.44129573      15.43708224      15.43048873      15.42195478      15.41301746      15.40369548      15.39435326      15.38574240      15.37702527      15.36748067      15.35316049      15.33379299      15.31340905      15.29481395      15.27852272      15.26705564      15.25780678      15.24779852
        15.23972740      15.24676993      15.27491776      15.29671791      15.31211412      15.32642984      15.33848136      15.34644122      15.35039081      15.35210289      15.35402770      15.35980299      15.37170607      15.39369199      15.42098963      15.44644592      15.46323538      15.47010345      15.47083926      15.46937201
        15.46668428      15.46386736      15.46294117      15.46443009      15.46867716      15.47909948      15.49318347      15.51027847      15.52709106      15.55249046      15.57295361      15.58305292      15.58635479      15.58872895      15.59123530      15.59312233      15.59211549      15.59179921      15.59506556      15.59953360
        15.60680526      15.62418189      15.66341060      15.69941904      15.72635017      15.74593869      15.76154818      15.77689015      15.79363272      15.81150622      15.83278254      15.85721855      15.88270058      15.90537854      15.92400239      15.93862832      15.94943698      15.95876004      15.96863809      15.97680390
        15.98498399      15.99557199      16.00835392      16.02311560      16.04002462      16.05266916      16.06102283      16.06507457      16.06567667      16.06359826      16.05903386      16.05286564      16.04696575      16.04155954      16.03508470      16.02826425      16.02317560      16.02253978      16.02470120      16.02913178
        16.03474028      16.03891054      15.43946689      15.43684706      15.43216639      15.42559370      15.41817123      15.41033193      15.40250145      15.39515304      15.38737454      15.37801285      15.36503907      15.34895809      15.33272896      15.31854929      15.30652816      15.29932366      15.29601603      15.29461901
        15.29556986      15.30024157      15.30877189      15.31875362      15.32900541      15.33808748      15.34612517      15.35355967      15.35899637      15.36526444      15.37507890      15.38948365      15.40878028      15.43266622      15.45279847      15.46855297      15.47811168      15.48341171      15.48620066      15.48528005
        15.48264484      15.48267534      15.48519560      15.49437053      15.51504931      15.53892058      15.56038009      15.58025951      15.60006779      15.61819994      15.62969045      15.63485114      15.63849322      15.63991109      15.63629921      15.63241653      15.63095087      15.63332736      15.63793762      15.64563533
        15.65726677      15.67309599      15.69287393      15.71348543      15.73223861      15.74764387      15.76308168      15.78241139      15.80526178      15.83134469      15.85952120      15.88614508      15.90859170      15.92484640      15.93793726      15.94953294      15.96083766      15.97356360      15.98553141      15.99560783
        16.00628623      16.01678147      16.02822584      16.04252798      16.05740127      16.06811442      16.07387173      16.07609827      16.07547721      16.07341043      16.07001354      16.06502053      16.05936617      16.05435780      16.05055438      16.04786353      16.04563936      16.04631494      16.05109754      16.06027294
        16.06722511      16.06979634      15.43707392      15.43576100      15.43295206      15.42802183      15.42199996      15.41471510      15.40611951      15.39791323      15.38994181      15.38143244      15.37178835      15.35943463      15.34507587      15.33327599      15.32479041      15.31928176      15.31718024      15.31712251
        15.31891879      15.32180976      15.32533821      15.33053284      15.33822467      15.34685509      15.35563475      15.36375633      15.37231768      15.38390265      15.39802681      15.41291876      15.43021622      15.44826763      15.46358326      15.47711225      15.48834949      15.49718199      15.50274147      15.50579953
        15.50904810      15.51783335      15.53400489      15.55440641      15.58003553      15.60082156      15.61842315      15.63461137      15.64958798      15.65973774      15.66612855      15.66821199      15.66656696      15.66327626      15.65960751      15.65709007      15.65776982      15.66074755      15.66533685      15.67222414
        15.68139249      15.69315848      15.70696321      15.72210383      15.73857339      15.75729177      15.77724497      15.80060753      15.82852744      15.85659922      15.88150928      15.90217110      15.91947486      15.93330535      15.94732811      15.96386956      15.98036943      15.99493283      16.00710666      16.01755577
        16.02816627      16.04241674      16.05709050      16.06849953      16.07698772      16.08218150      16.08436030      16.08447903      16.08329727      16.08118042      16.07808011      16.07436990      16.07040744      16.06796977      16.06823612      16.07160844      16.07716068      16.08361871      16.09328297      16.10205574
        16.10474578      16.10469609      15.43442385      15.43359947      15.43138022      15.42716394      15.42110548      15.41343701      15.40450696      15.39611267      15.38932003      15.38260532      15.37422240      15.36440287      15.35325850      15.34309176      15.33599745      15.33112562      15.32906389      15.32926334
        15.33066064      15.33235664      15.33554765      15.34153054      15.34926664      15.35684713      15.36452013      15.37250614      15.38295020      15.39580063      15.40961642      15.42424703      15.44084540      15.45730627      15.47358619      15.49017792      15.50511701      15.51797283      15.52697813      15.53540053