# File generated by Flopy version 3.7.0 on 06/21/2024 at 15:38:01.
BEGIN options
END options

BEGIN griddata
  strt
    INTERNAL  FACTOR  1.0
        15.00000000      15.00000000      15.00000000      15.00000000      15.00000000      15.00000000      15.00000000      15.00000000      15.00000000      15.00000000      15.00000000      15.00000000      15.00000000      15.00000000      15.00000000      15.00000000      15.00000000      15.00000000      15.00000000      15.00000000
        15.00000000      15.00000000      15.00000000      15.00000000      15.00000000      15.00000000      15.00000000      15.00000000      15.00000000      15.00000000      15.00000000      15.00000000      15.00000000      15.00000000      15.00000000      15.00000000      15.00000000      15.00000000      15.00000000      15.00000000
        15.00000000      15.00000000      15.00000000      15.00000000      15.00000000      15.00000000      15.00000000      15.00000000      15.00000000      15.00000000      15.00000000      15.00000000      15.00000000      15.00000000      15.00000000      15.00000000      15.00000000      15.00000000      15.00000000      15.00000000
        15.00000000      15.00000000      15.00000000      15.00000000      15.00000000      15.00000000      15.00000000      15.00000000      15.00000000      15.00000000      15.00000000      15.00000000      15.00000000      15.00000000      15.00000000      15.00000000      15.00000000      15.00000000      15.00000000      15.00000000
        15.00000000      15.00000000      15.00000000      15.00000000      15.00000000      15.00000000      15.00000000      15.00000000      15.00000000      15.00000000      15.00000000      15.00000000      15.00000000      15.00000000      15.00000000      15.00000000      15.00000000      15.00000000      15.00000000      15.00000000
        15.01564886      15.01551988      15.01556238      15.01587069      15.01614449      15.01609890      15.01573773      15.01511937      15.01438280      15.01325014      15.01198765      15.01064383      15.00928548      15.00811831      15.00719038      15.00651637      15.00614489      15.00603324      15.00609907      15.00636552
        15.00670269      15.00733967      15.00816448      15.00917836      15.01010018      15.01079826      15.01152159      15.01247910      15.01367289      15.01466822      15.01524286      15.01545121      15.01574614      15.01584303      15.01578418      15.01581681      15.01640458      15.01749554      15.01861330      15.01978924
        15.02214509      15.02589695      15.03005786      15.03437142      15.03818485      15.04211687      15.04533431      15.04834586      15.05151116      15.05713991      15.06344948      15.06993955      15.07682922      15.08288009      15.08910404      15.09236723      15.09294642      15.09296368      15.09101320      15.08904512
        15.08640811      15.08250961      15.07725188      15.07130623      15.06502758      15.05914142      15.05408293      15.05083898      15.04854778      15.04673645      15.04502813      15.04456343      15.04562282      15.04927495      15.05431501      15.06122269      15.06947069      15.07818065      15.08642219      15.09654317
        15.10524422      15.11131360      15.11543985      15.11741846      15.11754374      15.11687835      15.11536061      15.11425383      15.11618996      15.12081257      15.12727626      15.13936658      15.15326162      15.16517303      15.17520904      15.18677716      15.20045111      15.20914888      15.21348053      15.21572664
        15.02962916      15.02965055      15.02991410      15.03035267      15.03031698      15.02972781      15.02852684      15.02678013      15.02476127      15.02240618      15.02003034      15.01787589      15.01593684      15.01418819      15.01270677      15.01153105      15.01075070      15.01038447      15.01043588      15.01094631
        15.01185557      15.01329114      15.01503251      15.01698861      15.01874304      15.02033959      15.02228031      15.02450514      15.02654066      15.02795323      15.02877947      15.02947970      15.03023648      15.03076881      15.03133071      15.03253408      15.03491648      15.03791055      15.04119783      15.04521615
        15.05176646      15.06134948      15.07153725      15.08128130      15.08910006      15.09614201      15.10177867      15.10862705      15.11706465      15.12807929      15.13912314      15.14888139      15.15825896      15.16532131      15.16851984      15.16762775      15.16532265      15.16212928      15.15837251      15.15388145
        15.14827753      15.14068040      15.13237948      15.12394115      15.11528358      15.10752077      15.10132012      15.09776533      15.09493457      15.09366185      15.09459335      15.09913563      15.10648438      15.11702780      15.12857936      15.14083049      15.15427050      15.16980842      15.18645598      15.20316912
        15.21543690      15.22122739      15.22404181      15.22357999      15.22299655      15.22302352      15.22290283      15.22524133      15.23183806      15.24096260      15.25277161      15.27088247      15.29108886      15.31000933      15.33019006      15.34915568      15.36568814      15.37233611      15.37231523      15.37115585
        15.04315157      15.04336741      15.04344072      15.04324115      15.04223139      15.04058622      15.03834454      15.03539934      15.03218459      15.02890636      15.02580731      15.02319298      15.02088163      15.01869775      15.01668578      15.01496818      15.01362908      15.01279032      15.01261625      15.01325802
        15.01472912      15.01698617      15.01966793      15.02263030      15.02561447      15.02868936      15.03201557      15.03530423      15.03807285      15.03995992      15.04146380      15.04307901      15.04480578      15.04695524      15.04969889      15.05338498      15.05822063      15.06381540      15.07119837      15.08075260
        15.09422696      15.10973064      15.12311448      15.13446693      15.14382518      15.15245002      15.16024029      15.16984619      15.18135113      15.19415023      15.20609352      15.21440433      15.22039392      15.22366861      15.22298081      15.21954164      15.21486463      15.20926071      15.20440950      15.19977355
        15.19427062      15.18759422      15.17999868      15.17218944      15.16402072      15.15740298      15.15235023      15.14983767      15.14980056      15.15255284      15.15911727      15.16855059      15.17898976      15.19115377      15.20421193      15.21921458      15.23665228      15.25649969      15.27762403      15.29554579
        15.30645606      15.31116706      15.31320025      15.31443185      15.31679083      15.31966618      15.32305873      15.32830587      15.33679769      15.34780760      15.36161628      15.37929440      15.40050159      15.42386619      15.44837851      15.46850431      15.48012510      15.48250234      15.47985223      15.47648683
        15.05492380      15.05474544      15.05412762      15.05304242      15.05118182      15.04868670      15.04557303      15.04188510      15.03797171      15.03412724      15.03067429      15.02755794      15.02458154      15.02161316      15.01872301      15.01600269      15.01355194      15.01165516      15.01081656      15.01135812
        15.01326487      15.01650833      15.02053462      15.02504174      15.02964084      15.03420051      15.03867691      15.04286867      15.04656308      15.04961453      15.05271643      15.05617859      15.06023329      15.06498954      15.07057358      15.07730463      15.08594031      15.09679568      15.11028870      15.12513789
        15.14202309      15.15797818      15.16967819      15.17897758      15.18767539      15.19711478      15.20748070      15.21888199      15.23093056      15.24307672      15.25278499      15.25814290      15.26088988      15.26116016      15.25942010      15.25582930      15.25113393      15.24575816      15.24068995      15.23648919
        15.23295198      15.22926489      15.22510869      15.22080628      15.21652575      15.21328651      15.21095044      15.21142000      15.21503826      15.21980161      15.22663113      15.23432560      15.24329614      15.25527647      15.27053946      15.28937546      15.31008072      15.33107670      15.35076316      15.36646671
        15.37616584      15.38181820      15.38645801      15.39194818      15.39662719      15.40051597      15.40513089      15.41163238      15.42121820      15.43236358      15.44652726      15.46411451      15.48499054      15.50648878      15.52712816      15.54188862      15.54890287      15.55103027      15.54996905      15.54850313
        15.06279009      15.06224217      15.06117853      15.05961029      15.05736023      15.05443213      15.05086844      15.04683587      15.04258435      15.03816358      15.03396610      15.02995442      15.02587591      15.02160499      15.01720730      15.01250100      15.00781670      15.00387529      15.00125614      15.00094031
        15.00376229      15.00917914      15.01578324      15.02274702      15.02953908      15.03584903      15.04174666      15.04730743      15.05252912      15.05738362      15.06253848      15.06848749      15.07533728      15.08332946      15.09254524      15.10372566      15.11741035      15.13265232      15.14920455      15.16508777
        15.18018637      15.19364039      15.20380705      15.21232893      15.22141659      15.23267783      15.24435139      15.25547241      15.26533305      15.27378689      15.27977102      15.28288743      15.28446113      15.28450820      15.28342309      15.28098554      15.27782675      15.27451128      15.27113458      15.26895073
        15.26847213      15.26909543      15.26943914      15.26960320      15.26880796      15.26790396      15.26831025      15.27036757      15.27336833      15.27629892      15.27999383      15.28601389      15.29569205      15.30979310      15.32773613      15.34776177      15.36778596      15.38660803      15.40313799      15.41729547
        15.42824866      15.43637271      15.44333850      15.44953736      15.45433377      15.45854733      15.46345727      15.47039446      15.48041502      15.49264702      15.50744438      15.52453625      15.54210951      15.55819628      15.57243253      15.58154485      15.58698033      15.58994778      15.59057552      15.58990191
        15.06765711      15.06701148      15.06576022      15.06400958      15.06158870      15.05847565      15.05460432      15.05000510      15.04491360      15.03930464      15.03387073      15.02867399      15.02322241      15.01696887      15.00993436      15.00203268      14.99345166      14.98442201      14.97664857      14.97444001
        14.98039059      14.99181728      15.00428415      15.01550392      15.02544368      15.03431776      15.04238554      15.04984762      15.05698907      15.06386165      15.07136006      15.08002841      15.08991595      15.10143884      15.11413712      15.12854271      15.14453314      15.16078821      15.17770275      15.19278170
        15.20645589      15.21916194      15.22938819      15.23856645      15.24824367      15.25909294      15.26874541      15.27678832      15.28293784      15.28819135      15.29244581      15.29498145      15.29663393      15.29752642      15.29773596      15.29725357      15.29653471      15.29620284      15.29645357      15.29785579
        15.30069901      15.30446677      15.30765980      15.30960914      15.30991923      15.30966386      15.31048086      15.31141507      15.31269220      15.31473401      15.31882110      15.32609471      15.33684304      15.35151312      15.36941579      15.38816088      15.40598054      15.42293757      15.43859169      15.45253551
        15.46346274      15.47158741      15.47821131      15.48427196      15.49008494      15.49598850      15.50193857      15.50950396      15.51979424      15.53226437      15.54567157      15.55956363      15.57242211      15.58388421      15.59385984      15.60016701      15.60449896      15.60669334      15.60718861      15.60663707
        15.07069739      15.07006163      15.06872701      15.06668736      15.06380273      15.06006338      15.05531985      15.04942670      15.04296808      15.03614225      15.02966566      15.02305545      15.01527957      15.00575798      14.99464574      14.98117045      14.96361376      14.94270700      14.92617518      14.92360623
        14.93819609      14.96139280      14.98377313      15.00218436      15.01695447      15.02938983      15.04011107      15.04983095      15.05941477      15.06877000      15.07888049      15.09033803      15.10294473      15.11686728      15.13152756      15.14708315      15.16359613      15.18012427      15.19686968      15.21134537
        15.22426563      15.23599281      15.24570480      15.25453845      15.26309086      15.27146263      15.27844478      15.28398952      15.28843935      15.29277634      15.29671951      15.29960952      15.30193606      15.30389637      15.30563228      15.30727968      15.30915830      15.31170098      15.31507462      15.31923110
        15.32395371      15.32865002      15.33245246      15.33466811      15.33570248      15.33611854      15.33652411      15.33685885      15.33835678      15.34142953      15.34695586      15.35556392      15.36720414      15.38244976      15.39966876      15.41672221      15.43299126      15.44810479      15.46169658      15.47360007
        15.48301830      15.49025634      15.49669629      15.50351720      15.51051571      15.51792973      15.52509877      15.53302393      15.54226403      15.55268491      15.56325409      15.57371600      15.58310769      15.59109011      15.59781056      15.60198994      15.60508793      15.60680599      15.60750492      15.60737771
        15.07121889      15.07041037      15.06870072      15.06608624      15.06232483      15.05732624      15.05108698      15.04384672      15.03645178      15.02848704      15.02030883      15.01102341      14.99933504      14.98481062      14.96724331      14.94420687      14.91246423      14.87472787      14.84476770      14.84205985
        14.87323235      14.91611774      14.95327247      14.98189825      15.00313355      15.01979934      15.03403759      15.04686406      15.05927623      15.07130848      15.08394719      15.09775230      15.11240865      15.12837320      15.14444321      15.16059370      15.17735116      15.19384881      15.20963823      15.22249008
        15.23334658      15.24349433      15.25238117      15.26022141      15.26729086      15.27375745      15.27940077      15.28424608      15.28841125      15.29259739      15.29674344      15.30023093      15.30332253      15.30632768      15.30944669      15.31273348      15.31635259      15.32060565      15.32560479      15.33093498
        15.33638554      15.34155441      15.34567561      15.34850270      15.35020491      15.35129652      15.35237435      15.35381668      15.35654667      15.36109365      15.36799079      15.37824453      15.39096742      15.40584772      15.42112175      15.43592048      15.44949025      15.46127740      15.47222618      15.48259757
        15.49134772      15.49855269      15.50527180      15.51237500      15.51988947      15.52780686      15.53498099      15.54194515      15.54945614      15.55769696      15.56584032      15.57339248      15.57936428      15.58416868      15.58850108      15.59161828      15.59435795      15.59609753      15.59682778      15.59667877
        15.06666822      15.06549171      15.06316252      15.05948665      15.05432968      15.04788015      15.04045059      15.03243955      15.02383345      15.01369208      15.00220030      14.98856701      14.97194867      14.95261494      14.92889280      14.89628084      14.85016160      14.79017579      14.72634554      14.70704071
        14.76973637      14.85065318      14.91182781      14.95423855      14.98412117      15.00630570      15.02445240      15.04051350      15.05591717      15.07059317      15.08555475      15.10171048      15.11860019      15.13637487      15.15336802      15.16995376      15.18648750      15.20165039      15.21519132      15.22607297
        15.23559458      15.24488094      15.25304551      15.26001288      15.26608632      15.27175036      15.27699505      15.28174365      15.28597986      15.29024348      15.29457473      15.29851994      15.30223885      15.30599778      15.31000561      15.31433033      15.31902246      15.32436173      15.33012789      15.33572758
        15.34132818      15.34688205      15.35159703      15.35515466      15.35766746      15.35979101      15.36211849      15.36506713      15.36927322      15.37519490      15.38338565      15.39428095      15.40631034      15.41901881      15.43174700      15.44393140      15.45482028      15.46473958      15.47484721      15.48475796
        15.49303140      15.49991007      15.50652983      15.51352960      15.52075118      15.52814153      15.53457278      15.54040093      15.54633300      15.55251160      15.55802070      15.56267617      15.56658775      15.57028076      15.57396536      15.57696373      15.57949355      15.58109227      15.58166912      15.58159698
        15.05378666      15.05242063      15.04959665      15.04513346      15.03890247      15.03159005      15.02370334      15.01485965      15.00424925      14.99055508      14.97466994      14.95685736      14.93646504      14.91401671      14.88714740      14.84949092      14.79070415      14.69318304      14.53111330      14.50045179
        14.51625417      14.29748984      14.32665286      14.59020455      14.76606868      14.86535941      14.92324786      14.96148858      14.98934733      15.01175608      15.03141615      15.04990637      15.06703893      15.08419557      15.10242326      15.12147523      15.14100359      15.15861781      15.17471296      15.18977425
        15.20308611      15.21497301      15.22491054      15.23399085      15.24296799      15.25066530      15.25705499      15.26263831      15.26789704      15.27291882      15.27757263      15.28192486      15.28642897      15.29109029      15.29545082      15.29973223      15.30410831      15.30875401      15.31386012      15.31932341
        15.32513181      15.33108253      15.33547908      15.33791828      15.33533635      15.33809661      15.34266990      15.34866246      15.35391427      15.35810611      15.36142015      15.36459693      15.36802162      15.37200616      15.37715408      15.38375666      15.39209780      15.40201038      15.41224931      15.42295283
        15.43387562      15.44456567      15.45451145      15.46378115      15.47323422      15.48251413      15.49035808      15.49702234      15.50330628      15.50968728      15.51620309      15.52274532      15.52829356      15.53303346      15.53735244      15.54155293      15.54551608      15.54940258      15.55328864      15.55724919
        15.56102616      15.56396447      15.56634004      15.56789228      15.56852419      15.56858987      15.03095276      15.02996029      15.02770812      15.02370959      15.01745221      15.01003713      15.00147393      14.99078757      14.97682225      14.95888243      14.93937181      14.91891413      14.89726596      14.87488210
        14.84908224      14.81162535      14.74603346      14.62211713      14.44336737      14.26081603      14.43352390      14.25663140      14.05921467      13.92279793      13.89455898      13.66115424      13.50156489      13.49025227      13.19976374      13.00485946      12.99972376      12.25042876      13.97038743      14.13945095
        13.59313779      13.77858607      13.23312067      13.43433040      13.02007960      13.36776310      13.67692505      14.01683254      13.92079634      13.56992232      13.22181295      13.01459286      13.41893979      13.35709217      13.74785307      13.65630143      14.08123864      13.97843584      13.22889365      13.44263662
        13.43815946      13.54894277      13.71600136      13.70735280      13.83698831      14.03287737      14.01638607      14.15623908      14.35197987      14.53302150      14.35149107      14.52617011      14.70668124      14.82590108      14.89360955      14.93816665      14.97036297      14.99636590      15.01894334      15.04009188
        15.05987713      15.07968401      15.09997400      15.12020012      15.14042423      15.15803041      15.17339894      15.18754376      15.20005848      15.21130800      15.22096150      15.22991418      15.23878621      15.24637537      15.25268283      15.25830802      15.26343924      15.26820241      15.27271759      15.27708331
        15.28175981      15.28685935      15.29175770      15.29648297      15.30138448      15.30666267      15.31240110      15.31825017      15.32432666      15.32933450      15.33176475      15.32876761      15.33110750      15.33427796      15.33553466      15.33391575      15.33503590      15.33561791      15.33484377      15.33538415
        15.33567701      15.33529650      15.33561952      15.33708868      15.33836180      15.33641849      15.33707664      15.33609131      15.33640437      15.33599512      15.33635840      15.33696134      15.33818047      15.33353737      15.33467779      15.33522362      15.33556055      15.33519308      15.33549265      15.33459136
        15.33520413      15.33330501      15.33458312      15.33593001      15.33628802      15.33591058      15.33622735      15.33680800      15.33602168      15.33666392      15.33786900      15.33616924      15.33749686      15.34094913      15.34356287      15.34036913      15.34313210      15.34855929      15.35440553      15.35898408
        15.36271479      15.36638384      15.37024806      15.37462517      15.37998363      15.38645493      15.39416090      15.40301108      15.41213948      15.42175518      15.43162702      15.44141356      15.45076273      15.45950599      15.46832911      15.47715895      15.48490444      15.49154263      15.49769721      15.50360220
        15.50940430      15.51515912      15.51998826      15.52379911      15.52704381      15.53059171      15.53473629      15.53903808      15.54315918      15.54703518      15.55065466      15.55362911      15.55612477      15.55781817      15.55863728      15.55890730      14.99959124      14.99897592      14.99742324      14.99413629
        14.98846208      14.98045094      14.97011201      14.95716447      14.94101697      14.92126594      14.90165685      14.88237938      14.86287906      14.84208117      14.81814636      14.78388981      14.72740297      14.63327440      14.48067540      14.28473381      14.31734704      14.44803019      14.46667697      14.54357673
        14.70762175      14.80669017      14.86976823      14.91402472      14.94786266      14.97636482      15.00214763      15.02644381      15.04832635      15.07018585      15.09271721      15.11409035      15.13425645      15.15179037      15.16741584      15.18172444      15.19405288      15.20541918      15.21541011      15.22452103
        15.23353520      15.24134604      15.24774169      15.25325817      15.25829832      15.26299120      15.26746636      15.27193168      15.27676820      15.28209652      15.28746790      15.29270226      15.29808215      15.30378020      15.30991651      15.31604218      15.32211921      15.32826026      15.33314617      15.33603742
        15.33219731      15.33473518      15.34028501      15.34670205      15.35248794      15.35711783      15.36096690      15.36480638      15.36883457      15.37335458      15.37881138      15.38513658      15.39225522      15.40034731      15.40878379      15.41772746      15.42697018      15.43612257      15.44513217      15.45372347
        15.46218473      15.47061290      15.47813933      15.48467859      15.49078568      15.49669015      15.50239471      15.50780595      15.51221999      15.51566171      15.51886140      15.52253092      15.52676127      15.53118080      15.53529078      15.53899610      15.54256838      15.54559616      15.54808659      15.54989500
        15.55084223      15.55128250      14.96480771      14.96459617      14.96321105      14.95933909      14.95263672      14.94385118      14.93343274      14.92092096      14.90579636      14.88776954      14.86975512      14.85132057      14.83139435      14.81092560      14.78921703      14.76167146      14.72475027      14.67659374
        14.62283778      14.60566849      14.66011560      14.73806432      14.80235188      14.85115048      14.89001551      14.92281908      14.95254348      14.98051607      15.00827545      15.03375903      15.05816886      15.08206605      15.10432105      15.12529251      15.14337594      15.15915323      15.17390330      15.18677510
        15.19843363      15.20889528      15.21834813      15.22758167      15.23568024      15.24214248      15.24744903      15.25220234      15.25676765      15.26124860      15.26581432      15.27084208      15.27646067      15.28218874      15.28783892      15.29359370      15.29968913      15.30608451      15.31238100      15.31848330
        15.32449086      15.33019338      15.33598111      15.34206635      15.34768830      15.35243919      15.35656542      15.36071403      15.36511804      15.36985091      15.37531094      15.38160440      15.38863504      15.39643261      15.40444943      15.41294609      15.42185434      15.43068503      15.43928802      15.44764544
        15.45586589      15.46389093      15.47117604      15.47760407      15.48351637      15.48925865      15.49492400      15.50038215      15.50489973      15.50846374      15.51178735      15.51546492      15.51959686      15.52389075      15.52800219      15.53186318      15.53556055      15.53853315      15.54084685      15.54262567
        15.54381058      15.54427747      14.93240937      14.93174328      14.92916951      14.92412837      14.91737129      14.90972820      14.90056060      14.88926433      14.87481361      14.85709225      14.83820172      14.81905291      14.79931859      14.78108952      14.76391807      14.74581409      14.72529910      14.70322766
        14.68625884      14.68800101      14.71653946      14.75927370      14.80127220      14.83852787      14.87178808      14.90200838      14.93139849      14.96076650      14.99062082      15.01829207      15.04430548      15.06969537      15.09324294      15.11532032      15.13396774      15.15003860      15.16517035      15.17855977
        15.19055074      15.20135270      15.21125095      15.22056865      15.22844200      15.23487948      15.24014282      15.24477089      15.24926273      15.25383398      15.25858976      15.26371891      15.26943513      15.27536114      15.28133020      15.28726941      15.29342288      15.29984725      15.30598908      15.31180753
        15.31756919      15.32308561      15.32870682      15.33477209      15.34075248      15.34606677      15.35083551      15.35558171      15.36050089      15.36555990      15.37111796      15.37736628      15.38427946      15.39200595      15.39998640      15.40832668      15.41700588      15.42569237      15.43408748      15.44194047
        15.44976304      15.45757361      15.46461086      15.47080118      15.47650584      15.48206231      15.48752950      15.49283193      15.49744033      15.50130357      15.50480170      15.50846098      15.51254296      15.51688435      15.52110593      15.52501403      15.52866575      15.53169723      15.53417607      15.53610551
        15.53745508      15.53800794      14.90344864      14.90168200      14.89813423      14.89371642      14.88845437      14.88185298      14.87293314      14.86151468      14.84629200      14.82741268      14.80821325      14.78963035      14.77213824      14.75741088      14.74522396      14.73377045      14.72275098      14.71374578
        14.71036632      14.71760189      14.73750644      14.76631782      14.79804090      14.82850037      14.85792570      14.88703298      14.91607779      14.94588657      14.97622327      15.00443173      15.03125511      15.05772531      15.08220150      15.10499810      15.12397030      15.13988298      15.15524051      15.16930001
        15.18185497      15.19280508      15.20260844      15.21169019      15.21930113      15.22557227      15.23095205      15.23588614      15.24083510      15.24573471      15.25057762      15.25571636      15.26127526      15.26695602      15.27280004      15.27879735      15.28474384      15.29083425      15.29660605      15.30197751
        15.30747259      15.31318574      15.31941568      15.32603168      15.33273635      15.33902523      15.34472101      15.35031313      15.35589336      15.36133589      15.36705435      15.37327976      15.37995648      15.38742585      15.39540039      15.40372387      15.41227240      15.42082958      15.42914183      15.43686691
        15.44439176      15.45194232      15.45887717      15.46496472      15.47053221      15.47577205      15.48086442      15.48597599      15.49061010      15.49467602      15.49843257      15.50223931      15.50643005      15.51089842      15.51529463      15.51937188      15.52313658      15.52628934      15.52893578      15.53101588
        15.53229488      15.53280648      14.87964892      14.87792100      14.87535155      14.87201085      14.86723991      14.86063086      14.85120132      14.83848097      14.82154062      14.80134195      14.78171279      14.76406035      14.74915691      14.73751274      14.72874080      14.72166374      14.71655761      14.71432801
        14.71662959      14.72544166      14.74205195      14.76524323      14.79133090      14.81779981      14.84472188      14.87299856      14.90175866      14.93137462      14.96227078      14.99123134      15.01892462      15.04662129      15.07166077      15.09423169      15.11321855      15.12939867      15.14487723      15.15933017