# File generated by Flopy version 3.6.0 on 09/25/2024 at 17:08:35.
BEGIN griddata
  strt
    INTERNAL  FACTOR  1.0
        15.00000000      15.00000000      15.00000000      15.00000000      15.00000000      15.00000000      15.00000000      15.00000000      15.00000000      15.00000000      15.00000000      15.00000000      15.00000000      15.00000000      15.00000000      15.00000000      15.00000000      15.00000000      15.00000000      15.00000000
        15.00000000      15.00000000      15.00000000      15.00000000      15.00000000      15.00000000      15.00000000      15.00000000      15.00000000      15.00000000      15.00000000      15.00000000      15.00000000      15.00000000      15.00000000      15.00000000      15.00000000      15.00000000      15.00000000      15.00000000
        15.00000000      15.00000000      15.00000000      15.00000000      15.00000000      15.00000000      15.00000000      15.00000000      15.00000000      15.00000000      15.00000000      15.00000000      15.00000000      15.00000000      15.00000000      15.00000000      15.00000000      15.00000000      15.00000000      15.00000000
        15.00000000      15.00000000      15.00000000      15.00000000      15.00000000      15.00000000      15.00000000      15.00000000      15.00000000      15.00000000      15.00000000      15.00000000      15.00000000      15.00000000      15.00000000      15.00000000      15.00000000      15.00000000      15.00000000      15.00000000
        15.00000000      15.00000000      15.00000000      15.00000000      15.00000000      15.00000000      15.00000000      15.00000000      15.00000000      15.00000000      15.00000000      15.00000000      15.00000000      15.00000000      15.00000000      15.00000000      15.00000000      15.00000000      15.00000000      15.00000000
        15.08075353      15.08085108      15.08148781      15.08223746      15.08164810      15.07919682      15.07339746      15.06686132      15.05999604      15.05220041      15.04563469      15.03922061      15.03400333      15.03077190      15.02829865      15.02476821      15.02039473      15.01584731      15.01215856      15.00953966
        15.00739374      15.00582384      15.00484554      15.00434139      15.00401538      15.00381942      15.00373181      15.00372286      15.00379128      15.00387638      15.00390747      15.00392390      15.00387258      15.00378943      15.00375908      15.00377653      15.00377075      15.00387067      15.00399733      15.00421149
        15.00457135      15.00498367      15.00544337      15.00606869      15.00676660      15.00735450      15.00794316      15.00867430      15.00950461      15.01022989      15.01075485      15.01132632      15.01207841      15.01299243      15.01397736      15.01501898      15.01612826      15.01770519      15.01984825      15.02220334
        15.02499619      15.02869207      15.03253893      15.03571619      15.03714807      15.03702385      15.03630093      15.03509851      15.03281962      15.02977630      15.02723296      15.02486597      15.02283716      15.02179320      15.02106008      15.02061657      15.02101360      15.02187208      15.02290987      15.02399699
        15.02448581      15.02360963      15.02221474      15.02011040      15.01827454      15.01715381      15.01673195      15.01665807      15.01631953      15.01614956      15.01593523      15.01594765      15.01638954      15.01687392      15.01767525      15.01871993      15.01940011      15.01972211      15.01990115      15.01968293
        15.14957256      15.14956189      15.14928900      15.15009378      15.15084814      15.14831439      15.13934352      15.12742325      15.11551595      15.10240312      15.08979267      15.07878437      15.06917738      15.06206229      15.05672142      15.05033172      15.04241675      15.03406082      15.02629869      15.02047747
        15.01601482      15.01275857      15.01063637      15.00943111      15.00871945      15.00823963      15.00800738      15.00795824      15.00804855      15.00821440      15.00831447      15.00837838      15.00833722      15.00815917      15.00798318      15.00801634      15.00809061      15.00825020      15.00856247      15.00896087
        15.00952505      15.01034431      15.01123659      15.01224668      15.01347526      15.01461227      15.01576838      15.01707481      15.01848927      15.01963210      15.02045528      15.02144991      15.02279460      15.02437298      15.02619054      15.02813047      15.03031247      15.03320724      15.03721674      15.04201813
        15.04737525      15.05345493      15.05975392      15.06524528      15.06884186      15.06949427      15.06865433      15.06729168      15.06428005      15.06014920      15.05591320      15.05173553      15.04800199      15.04563346      15.04428037      15.04359730      15.04401193      15.04480898      15.04592392      15.04741388
        15.04823974      15.04752868      15.04567212      15.04279815      15.03941722      15.03665561      15.03498232      15.03448368      15.03404487      15.03351624      15.03300788      15.03265016      15.03313431      15.03387465      15.03511591      15.03690659      15.03836284      15.03931337      15.03967739      15.03957648
        15.20669037      15.20703179      15.20642022      15.20721772      15.20836988      15.20620723      15.19696304      15.18199149      15.16641618      15.15035776      15.13396025      15.11942133      15.10671673      15.09565646      15.08704014      15.07806722      15.06675182      15.05471123      15.04324631      15.03369275
        15.02645169      15.02113937      15.01772281      15.01560146      15.01436421      15.01354832      15.01302314      15.01287794      15.01300056      15.01320870      15.01339117      15.01345961      15.01341721      15.01319215      15.01292830      15.01289098      15.01306885      15.01331052      15.01373699      15.01425465
        15.01490892      15.01590733      15.01708069      15.01839464      15.01993952      15.02162967      15.02336014      15.02509078      15.02675750      15.02812490      15.02926288      15.03055809      15.03224953      15.03437351      15.03686783      15.03960098      15.04283198      15.04709820      15.05262769      15.05940276
        15.06671126      15.07458869      15.08291480      15.09039138      15.09611041      15.09853675      15.09853713      15.09746325      15.09494394      15.09057314      15.08510606      15.07974383      15.07444949      15.07052463      15.06837496      15.06752239      15.06776984      15.06814706      15.06881795      15.07010202
        15.07101417      15.07072257      15.06892472      15.06600867      15.06178563      15.05766678      15.05477823      15.05337566      15.05275189      15.05203334      15.05125747      15.05059039      15.05079737      15.05157866      15.05300041      15.05492535      15.05688794      15.05828896      15.05883237      15.05908088
        15.25347948      15.25455513      15.25516776      15.25662177      15.25759941      15.25488552      15.24537616      15.22949351      15.21196724      15.19479480      15.17768767      15.16136240      15.14652100      15.13306063      15.12107621      15.10967762      15.09505233      15.07876917      15.06370758      15.05016111
        15.03936983      15.03155831      15.02646655      15.02325373      15.02129712      15.02008439      15.01924303      15.01884309      15.01883282      15.01905555      15.01934765      15.01938068      15.01925903      15.01903238      15.01876453      15.01862033      15.01878023      15.01909845      15.01948687      15.02000657
        15.02071568      15.02175779      15.02310922      15.02458404      15.02634481      15.02846916      15.03065218      15.03257245      15.03431030      15.03584734      15.03724791      15.03880265      15.04080738      15.04340419      15.04647269      15.04990758      15.05424827      15.05983907      15.06649438      15.07438979
        15.08334370      15.09310077      15.10318196      15.11265022      15.12028981      15.12493026      15.12647477      15.12647254      15.12492951      15.12094225      15.11462703      15.10799002      15.10142944      15.09616801      15.09289710      15.09147281      15.09121364      15.09112951      15.09125217      15.09189711
        15.09272741      15.09266984      15.09132913      15.08855500      15.08435867      15.07954828      15.07588680      15.07337280      15.07213616      15.07155888      15.07106920      15.07055688      15.07045944      15.07090205      15.07174480      15.07320824      15.07519348      15.07682402      15.07770108      15.07824451
        15.29214559      15.29329880      15.29537751      15.29725770      15.29791183      15.29461907      15.28541894      15.26976718      15.25200349      15.23471458      15.21812369      15.20174682      15.18584250      15.17178912      15.15800364      15.14446467      15.12743169      15.10720653      15.08808127      15.07067270
        15.05557541      15.04441997      15.03723041      15.03260282      15.02969455      15.02795090      15.02683448      15.02614961      15.02589579      15.02598052      15.02630175      15.02629742      15.02599997      15.02572693      15.02548186      15.02527592      15.02533226      15.02558943      15.02586791      15.02624551
        15.02691638      15.02798671      15.02941986      15.03100497      15.03290388      15.03521898      15.03753694      15.03950308      15.04132219      15.04297421      15.04461832      15.04647393      15.04885262      15.05188802      15.05546111      15.05954998      15.06492327      15.07158596      15.07918630      15.08798410
        15.09819283      15.10945624      15.12124575      15.13259332      15.14233221      15.14891237      15.15243250      15.15410689      15.15398082      15.15110610      15.14485697      15.13709608      15.12937470      15.12277760      15.11809308      15.11548999      15.11452803      15.11400678      15.11369177      15.11369190
        15.11406187      15.11428346      15.11368056      15.11152017      15.10767324      15.10298124      15.09848131      15.09496863      15.09286982      15.09233088      15.09238128      15.09229673      15.09210792      15.09204794      15.09191560      15.09247606      15.09396283      15.09572498      15.09702497      15.09749988
        15.32207792      15.32327738      15.32567813      15.32752773      15.32774719      15.32454324      15.31664359      15.30289538      15.28611150      15.26896986      15.25280699      15.23753326      15.22197451      15.20795685      15.19456268      15.17999467      15.16190165      15.13951271      15.11680359      15.09567026
        15.07630891      15.06071626      15.05059088      15.04417583      15.04002651      15.03752061      15.03608364      15.03518084      15.03470289      15.03453049      15.03471298      15.03458104      15.03400389      15.03354529      15.03321023      15.03291997      15.03291253      15.03307174      15.03325427      15.03345025
        15.03395812      15.03490767      15.03629110      15.03796929      15.03990578      15.04215915      15.04427600      15.04623732      15.04803736      15.04976293      15.05171435      15.05392259      15.05664195      15.06000702      15.06393624      15.06865722      15.07490620      15.08264243      15.09122980      15.10078587
        15.11166910      15.12398841      15.13719170      15.15049682      15.16234669      15.17140854      15.17739159      15.18117932      15.18304282      15.18166352      15.17633889      15.16752803      15.15862138      15.15097135      15.14480528      15.14051347      15.13864218      15.13786499      15.13727345      15.13688826
        15.13658801      15.13668732      15.13685004      15.13595540      15.13282030      15.12834239      15.12308830      15.11843725      15.11521220      15.11426460      15.11460342      15.11501695      15.11499477      15.11460206      15.11396301      15.11345455      15.11390695      15.11546389      15.11695856      15.11756740
        15.34412237      15.34534908      15.34738097      15.34884567      15.34890900      15.34629563      15.33936047      15.32775939      15.31306038      15.29702873      15.28118659      15.26694045      15.25318926      15.23962299      15.22739374      15.21381505      15.19619537      15.17371499      15.14923040      15.12496445
        15.10188244      15.08169250      15.06745716      15.05854068      15.05284489      15.04926640      15.04717741      15.04599103      15.04538418      15.04507001      15.04493412      15.04450357      15.04359844      15.04267513      15.04214872      15.04170337      15.04155496      15.04158896      15.04167147      15.04176349
        15.04202603      15.04264979      15.04380481      15.04540468      15.04733719      15.04937318      15.05122851      15.05306014      15.05475181      15.05659134      15.05867800      15.06112399      15.06406662      15.06767737      15.07183684      15.07709776      15.08415021      15.09268873      15.10194116      15.11200757
        15.12339734      15.13645035      15.15074000      15.16559043      15.17949001      15.19173362      15.20068129      15.20707536      15.21151943      15.21214768      15.20843116      15.19977804      15.18895539      15.17995977      15.17258361      15.16681775      15.16367015      15.16259906      15.16183700      15.16117006
        15.16037372      15.16027958      15.16096028      15.16115429      15.15957094      15.15541938      15.14983993      15.14400587      15.13941894      15.13733946      15.13750269      15.13826417      15.13856610      15.13816775      15.13742602      15.13619673      15.13552297      15.13613349      15.13760454      15.13844937
        15.36002115      15.36088064      15.36230336      15.36333378      15.36335088      15.36116122      15.35513487      15.34504773      15.33245014      15.31860116      15.30413889      15.29052739      15.27856034      15.26632140      15.25486938      15.24306179      15.22761258      15.20672774      15.18261561      15.15730144
        15.13170019      15.10759948      15.08861514      15.07629989      15.06832944      15.06339653      15.06020343      15.05838250      15.05764136      15.05730960      15.05681997      15.05610788      15.05491134      15.05348644      15.05263950      15.05194869      15.05141399      15.05110933      15.05095744      15.05088936
        15.05086088      15.05111332      15.05184126      15.05313217      15.05494364      15.05675658      15.05839437      15.05996389      15.06160174      15.06344263      15.06550317      15.06802538      15.07114689      15.07495905      15.07934561      15.08501356      15.09248001      15.10131507      15.11080325      15.12110829
        15.13290726      15.14656285      15.16186180      15.17803909      15.19413835      15.20899351      15.22103562      15.23053204      15.23815687      15.24188372      15.24058815      15.23380740      15.22195219      15.21058406      15.20178323      15.19459573      15.18991723      15.18782112      15.18687832      15.18565215
        15.18473175      15.18496760      15.18601700      15.18664204      15.18593521      15.18288367      15.17772168      15.17156744      15.16617068      15.16259898      15.16204365      15.16270216      15.16311814      15.16265859      15.16147597      15.15977213      15.15843858      15.15776419      15.15865030      15.15959533
        15.37013277      15.37077061      15.37175056      15.37251796      15.37241627      15.37043273      15.36547965      15.35689710      15.34609508      15.33427919      15.32193326      15.30953734      15.29848609      15.28783377      15.27722594      15.26674394      15.25393397      15.23620421      15.21400694      15.18956156
        15.16371245      15.13721778      15.11409633      15.09760609      15.08658251      15.07965678      15.07519087      15.07231900      15.07105848      15.07061269      15.07002989      15.06927866      15.06811935      15.06649565      15.06513189      15.06421476      15.06315433      15.06218584      15.06143610      15.06097920
        15.06059403      15.06034211      15.06059235      15.06140115      15.06288273      15.06440146      15.06571542      15.06706017      15.06864662      15.07039223      15.07247078      15.07496954      15.07821114      15.08219500      15.08680863      15.09269146      15.10010823      15.10868658      15.11806690      15.12853883
        15.14062681      15.15471486      15.17097454      15.18857841      15.20664826      15.22375234      15.23866927      15.25166611      15.26286425      15.27032205      15.27218076      15.26825856      15.25782533      15.24423561      15.23300495      15.22426277      15.21795898      15.21429341      15.21257257      15.21064872
        15.20971330      15.21016909      15.21116581      15.21185372      15.21124216      15.20929401      15.20529227      15.19986443      15.19416523      15.18981682      15.18816679      15.18850093      15.18844419      15.18757269      15.18576562      15.18355840      15.18151812      15.17978126      15.17936396      15.17980786
        15.37534972      15.37598288      15.37684917      15.37749734      15.37725761      15.37563119      15.37178730      15.36505336      15.35608843      15.34597422      15.33556482      15.32506825      15.31478221      15.30523124      15.29563819      15.28608804      15.27533035      15.26126499      15.24255544      15.22046542
        15.19598201      15.16902291      15.14299883      15.12223524      15.10764158      15.09795572      15.09193289      15.08778996      15.08562264      15.08482291      15.08435696      15.08375722      15.08286641      15.08126281      15.07950123      15.07832062      15.07688146      15.07507443      15.07343641      15.07227326
        15.07127948      15.07036781      15.07004912      15.07030596      15.07115435      15.07216419      15.07311642      15.07435516      15.07584467      15.07750326      15.07951645      15.08201008      15.08531819      15.08946708      15.09432391      15.10019170      15.10721453      15.11529795      15.12459399      15.13516502
        15.14731115      15.16156713      15.17858690      15.19783889      15.21789976      15.23721503      15.25490431      15.27140927      15.28637733      15.29785837      15.30353337      15.30318689      15.29558695      15.28157330      15.26756640      15.25675082      15.24856851      15.24289643      15.23980677      15.23740479
        15.23592609      15.23591371      15.23643999      15.23690373      15.23666113      15.23520740      15.23245375      15.22821285      15.22260917      15.21782486      15.21523232      15.21477329      15.21424479      15.21291035      15.21088894      15.20843795      15.20544176      15.20255666      15.20058246      15.19963068
        15.37631689      15.37703635      15.37782890      15.37836527      15.37819282      15.37692427      15.37402101      15.36914052      15.36232486      15.35410909      15.34532070      15.33686724      15.32815523      15.31944356      15.31070333      15.30188161      15.29241557      15.28114042      15.26619680      15.24753799
        15.22583895      15.20017658      15.17305159      15.14898853      15.13060905      15.11779409      15.10964528      15.10427599      15.10098089      15.09966276      15.09919269      15.09875015      15.09804067      15.09673194      15.09490987      15.09331955      15.09172956      15.08944886      15.08694496      15.08485380
        15.08301993      15.08140492      15.08011294      15.07958871      15.07959756      15.07995556      15.08067587      15.08175186      15.08309224      15.08466433      15.08650766      15.08900620      15.09245343      15.09681379      15.10188362      15.10760843      15.11415601      15.12177245      15.13093547      15.14159480
        15.15375552      15.16790944      15.18550120      15.20610818      15.22808721      15.24979433      15.27039686      15.29050738      15.30937242      15.32510660      15.33610143      15.33949363      15.33505019      15.32238911      15.30657030      15.29299643      15.28268299      15.27454891      15.26929845      15.26625197
        15.26389363      15.26276583      15.26251891      15.26231397      15.26223271      15.26130850      15.25962746      15.25624097      15.25138250      15.24606870      15.24258630      15.24105264      15.24016079      15.23873151      15.23667726      15.23399750      15.23043746      15.22655430      15.22331401      15.22149469
        15.37382095      15.37450807      15.37519966      15.37560127      15.37552044      15.37461260      15.37243954      15.36878273      15.36381494      15.35792342      15.35115917      15.34449624      15.33790451      15.33079003      15.32314909      15.31502199      15.30636900      15.29657797      15.28459075      15.26913988
        15.25058937      15.22759414      15.20145310      15.17603062      15.15463128      15.13855996      15.12791129      15.12096502      15.11650293      15.11441400      15.11370696      15.11339145      15.11291025      15.11210318      15.11064720      15.10886268      15.10706149      15.10466428      15.10167624      15.09864029
        15.09600401      15.09352894      15.09108250      15.08936715      15.08840496      15.08813190      15.08855140      15.08929449      15.09037368      15.09186100      15.09361919      15.09616350      15.09984189      15.10435949      15.10943449      15.11490481      15.12100471      15.12825051      15.13727786      15.14796779
        15.16006346      15.17408822      15.19174918      15.21297419      15.23653087      15.26103006      15.28477374      15.30843516      15.33123314      15.35200404      15.36929450      15.37749779      15.37608703      15.36546496      15.34890674      15.33214339      15.31923781      15.30894015      15.30108190      15.29627353
        15.29289197      15.29000221      15.28840292      15.28748145      15.28684514      15.28620450      15.28512106      15.28239354      15.27852636      15.27315744      15.26866012      15.26599639      15.26462502      15.26321619      15.26108206      15.25813667      15.25462773      15.25058237      15.24664341      15.24466994
        15.36873443      15.36912696      15.36952372      15.36964641      15.36950414      15.36876261      15.36713059      15.36435924      15.36062486      15.35673417      15.35246704      15.34791551      15.34350006      15.33867832      15.33297550      15.32630390      15.31856642      15.30964624      15.29933746      15.28627694
        15.27024292      15.25011714      15.22603884      15.20115106      15.17815849      15.15946478      15.14639410      15.13736692      15.13157115      15.12854047      15.12746492      15.12726325      15.12710265      15.12682193      15.12595239      15.12428117      15.12219085      15.11962744      15.11655837      15.11298371
        15.10969777      15.10647486      15.10297034      15.09989640      15.09773723      15.09676156      15.09668009      15.09703612      15.09782482      15.09918647      15.10106757      15.10377816      15.10754836      15.11201997      15.11688484      15.12202967      15.12783337      15.13474865      15.14344557      15.15410767
        15.16613295      15.18005320      15.19747784      15.21884562      15.24370870      15.27088560      15.29828825      15.32569406      15.35252065      15.37880647      15.40236357      15.41668663      15.41851151      15.41021665      15.39357718      15.37410461      15.35779432      15.34514729      15.33481318      15.32736646
        15.32236800      15.31781522      15.31457082      15.31252045      15.31066513      15.30938701      15.30834660      15.30636901      15.30317406      15.29831469      15.29312613      15.28945431      15.28725132      15.28546652      15.28349023      15.28076361      15.27745861      15.27383514      15.27025545      15.26817207
        15.36164236      15.36159217      15.36130133      15.36094859      15.36053724      15.35978053      15.35840184      15.35630276      15.35348929      15.35072294      15.34832763      15.34609224      15.34401670      15.34198116      15.33910387      15.33491382      15.32894747      15.32130232      15.31196765      15.30049410
        15.28618297      15.26847121      15.24660203      15.22302015      15.20000331      15.17970327      15.16448746      15.15349710      15.14608171      15.14187389      15.14020777      15.13995349      15.14012961      15.14028478      15.13990513      15.13842426      15.13632380      15.13370524      15.13062516      15.12709180
        15.12337257      15.11967038      15.11549579      15.11120917      15.10771772      15.10573555      15.10495158      15.10493047      15.10553424      15.10677611      15.10881191      15.11164957      15.11535236      15.11974106      15.12435696      15.12917602      15.13459820      15.14116934      15.14943718      15.15985490
        15.17197580      15.18601398      15.20339158      15.22495073      15.25073410      15.28004007      15.31084852      15.34224133      15.37366144      15.40521619      15.43514916      15.45588470      15.46189572      15.45591754      15.44034757      15.41956766      15.39916554      15.38261830      15.36912661      15.35906854
        15.35192290      15.34605274      15.34126062      15.33785928      15.33488981      15.33226411      15.33041314      15.32891940      15.32584279      15.32134136      15.31601905      15.31159550      15.30844310      15.30592031      15.30409583      15.30203997      15.29932908      15.29631439      15.29359928      15.29172025
        15.35300801      15.35238822      15.35119149      15.35004058      15.34926964      15.34837409      15.34698814      15.34514513      15.34283185      15.34046933      15.33894108      15.33840091      15.33870009      15.33931705      15.33969961      15.33903149      15.33607395      15.33066802      15.32284020      15.31275248
        15.29987939      15.28377079      15.26411550      15.24191684      15.21959112      15.19890600      15.18204103      15.16931144      15.16037884      15.15482291      15.15213627      15.15141373      15.15168109      15.15214520      15.15211585      15.15099580      15.14904850      15.14663870      15.14373959      15.14054834
        15.13679549      15.13271407      15.12823604      15.12317730      15.11853108      15.11540442      15.11380019      15.11330190      15.11369957      15.11481523      15.11678718      15.11959633      15.12323580      15.12744425      15.13177567      15.13623211      15.14132600      15.14757213      15.15553195      15.16579361
        15.17794726      15.19228799      15.20998938      15.23175978      15.25817484      15.28907479      15.32254815      15.35775121      15.39396289      15.43085982      15.46629482      15.49371357      15.50637555      15.50378728      15.48961101      15.46731259      15.44206680      15.42058855      15.40329807      15.39053093
        15.38106210      15.37394969      15.36801242      15.36342077      15.35948821      15.35552588      15.35215768      15.34975970      15.34653674      15.34197025      15.33666680      15.33192849      15.32823796      15.32522660      15.32307063      15.32163496      15.32007331      15.31787848      15.31570158      15.31432304
        15.34338766      15.34218536      15.34013132      15.33810831      15.33671232      15.33536442      15.33384413      15.33179591      15.32952920      15.32735194      15.32616851      15.32635863      15.32814010      15.33094646      15.33418052      15.33729865      15.33864857      15.33649374      15.33121768      15.32316152
        15.31221465      15.29740935      15.27945019      15.25900225      15.23761566      15.21716965      15.19921029      15.18486487      15.17456264      15.16780685      15.16382558      15.16225874      15.16220031      15.16260913      15.16282259      15.16218412      15.16058310      15.15847511      15.15597564      15.15304111
        15.14951280      15.14530188      15.14082287      15.13558861      15.13027770      15.12602938      15.12350510      15.12242662      15.12243500      15.12325482      15.12497381      15.12759449      15.13106181      15.13499479      15.13901676      15.14321687      15.14817011      15.15426539      15.16221252      15.17232848
        15.18436936      15.19875564      15.21683515      15.23939616      15.26629198      15.29792177      15.33375527      15.37263253      15.41339127      15.45528234      15.49652190      15.53139750      15.55116902      15.55360538      15.54115903      15.51752121      15.48796749      15.46026255      15.43856145      15.42202944
        15.41004573      15.40142239      15.39464928      15.38902515      15.38404273      15.37898187      15.37403109      15.36956988      15.36555670      15.36090332      15.35529232      15.35024108      15.34652696      15.34359455      15.34118882      15.34002935      15.33928628      15.33809426      15.33654889      15.33558851
        15.33306111      15.33144010      15.32868789      15.32598620      15.32370190      15.32156537      15.31959697      15.31720056      15.31479555      15.31277697      15.31170463      15.31216711      15.31459034      15.31885656      15.32400610      15.33009768      15.33589485      15.33838126      15.33658531      15.33129999
        15.32268012      15.30990129      15.29342293      15.27453062      15.25444874      15.23484379      15.21643719      15.20047437      15.18854763      15.18078691      15.17575382      15.17313751      15.17236265      15.17234832      15.17248010      15.17214653      15.17107103      15.16939719      15.16722196      15.16441863