# File generated by Flopy version 3.6.0 on 12/17/2024 at 11:54:28.
BEGIN options
  PRINT_OPTION  summary
  COMPLEXITY  complex
END options

BEGIN linear
  LINEAR_ACCELERATION  bicgstab
END linear

