# File generated by Flopy version 3.6.0 on 09/25/2024 at 13:53:53.
BEGIN griddata
  strt
    INTERNAL  FACTOR  1.0
        15.00000000      15.00000000      15.00000000      15.00000000      15.00000000      15.00000000      15.00000000      15.00000000      15.00000000      15.00000000      15.00000000      15.00000000      15.00000000      15.00000000      15.00000000      15.00000000      15.00000000      15.00000000      15.00000000      15.00000000
        15.00000000      15.00000000      15.00000000      15.00000000      15.00000000      15.00000000      15.00000000      15.00000000      15.00000000      15.00000000      15.00000000      15.00000000      15.00000000      15.00000000      15.00000000      15.00000000      15.00000000      15.00000000      15.00000000      15.00000000
        15.00000000      15.00000000      15.00000000      15.00000000      15.00000000      15.00000000      15.00000000      15.00000000      15.00000000      15.00000000      15.00000000      15.00000000      15.00000000      15.00000000      15.00000000      15.00000000      15.00000000      15.00000000      15.00000000      15.00000000
        15.00000000      15.00000000      15.00000000      15.00000000      15.00000000      15.00000000      15.00000000      15.00000000      15.00000000      15.00000000      15.00000000      15.00000000      15.00000000      15.00000000      15.00000000      15.00000000      15.00000000      15.00000000      15.00000000      15.00000000
        15.00000000      15.00000000      15.00000000      15.00000000      15.00000000      15.00000000      15.00000000      15.00000000      15.00000000      15.00000000      15.00000000      15.00000000      15.00000000      15.00000000      15.00000000      15.00000000      15.00000000      15.00000000      15.00000000      15.00000000
        15.07644301      15.07617494      15.07618988      15.07601147      15.07417829      15.07051191      15.06423834      15.05796469      15.05166503      15.04470940      15.03888945      15.03320273      15.02855929      15.02560116      15.02325721      15.01999570      15.01608807      15.01219820      15.00914981      15.00703691
        15.00535345      15.00415180      15.00341438      15.00303226      15.00278418      15.00263251      15.00256047      15.00254610      15.00258626      15.00263733      15.00264993      15.00265210      15.00260830      15.00254273      15.00251127      15.00251001      15.00249115      15.00254193      15.00261106      15.00273869
        15.00296176      15.00321736      15.00350149      15.00389119      15.00432552      15.00468809      15.00505210      15.00550802      15.00602771      15.00648169      15.00680939      15.00716514      15.00762929      15.00818286      15.00875736      15.00933926      15.00993788      15.01079778      15.01195950      15.01317710
        15.01459469      15.01648190      15.01839148      15.01988953      15.02042712      15.02018535      15.01969180      15.01896825      15.01769921      15.01608486      15.01481252      15.01368724      15.01277712      15.01241385      15.01221236      15.01215557      15.01256841      15.01325426      15.01404512      15.01485572
        15.01527826      15.01481938      15.01400785      15.01274005      15.01165629      15.01103535      15.01085914      15.01090811      15.01078787      15.01077526      15.01072427      15.01082263      15.01120846      15.01162168      15.01224450      15.01302074      15.01352356      15.01376083      15.01388727      15.01373032
        15.14463459      15.14409915      15.14287863      15.14230247      15.14113742      15.13651435      15.12609859      15.11388636      15.10228875      15.08991137      15.07818183      15.06798110      15.05908661      15.05241520      15.04730169      15.04125292      15.03398960      15.02663190      15.02007327      15.01529047
        15.01171681      15.00917235      15.00754365      15.00662065      15.00607203      15.00570074      15.00551296      15.00546022      15.00550753      15.00560680      15.00565799      15.00568296      15.00563577      15.00549425      15.00535105      15.00534602      15.00536395      15.00543678      15.00561132      15.00584357
        15.00618540      15.00669153      15.00724048      15.00786312      15.00862387      15.00932343      15.01003661      15.01084898      15.01173361      15.01244944      15.01296569      15.01359127      15.01443314      15.01540550      15.01649036      15.01759726      15.01879875      15.02038874      15.02259772      15.02516161
        15.02792341      15.03100676      15.03411087      15.03668875      15.03820864      15.03819843      15.03750811      15.03660645      15.03487374      15.03267109      15.03057535      15.02863348      15.02701301      15.02615498      15.02584126      15.02587174      15.02650216      15.02734057      15.02835327      15.02957226
        15.03033266      15.03006654      15.02902847      15.02732944      15.02532895      15.02373812      15.02284573      15.02272264      15.02264300      15.02249365      15.02233772      15.02227402      15.02277638      15.02344458      15.02444267      15.02579510      15.02687777      15.02757710      15.02784107      15.02776498
        15.20373140      15.20352417      15.20176090      15.20093339      15.19987606      15.19517054      15.18357518      15.16727496      15.15121550      15.13521072      15.11918776      15.10509621      15.09282871      15.08213920      15.07373097      15.06500139      15.05432829      15.04344356      15.03350432      15.02548651
        15.01956501      15.01533202      15.01265893      15.01101420      15.01005074      15.00941363      15.00900019      15.00886694      15.00892756      15.00904871      15.00914797      15.00916572      15.00910645      15.00891969      15.00870020      15.00862984      15.00869882      15.00880565      15.00903523      15.00932629
        15.00970768      15.01031263      15.01102606      15.01182633      15.01277284      15.01380958      15.01487389      15.01594479      15.01698298      15.01783930      15.01855814      15.01938242      15.02045651      15.02178975      15.02331527      15.02491663      15.02674117      15.02912605      15.03221012      15.03591519
        15.03974774      15.04375227      15.04788274      15.05142052      15.05395429      15.05474187      15.05435668      15.05349599      15.05193937      15.04957708      15.04688104      15.04445611      15.04219783      15.04072223      15.04021707      15.04039692      15.04114378      15.04191598      15.04283535      15.04409274
        15.04503870      15.04513005      15.04419130      15.04251921      15.04002483      15.03761803      15.03602072      15.03541310      15.03532294      15.03514688      15.03490338      15.03471936      15.03512183      15.03589861      15.03709266      15.03859453      15.04007402      15.04111650      15.04151617      15.04168952
        15.25406470      15.25465900      15.25412675      15.25392594      15.25260829      15.24708422      15.23455535      15.21627441      15.19721049      15.17913783      15.16150685      15.14489239      15.12990122      15.11635046      15.10432172      15.09287756      15.07867322      15.06356236      15.05013045      15.03848172
        15.02946827      15.02311462      15.01905437      15.01652168      15.01498056      15.01402119      15.01335654      15.01302679      15.01298429      15.01310816      15.01327566      15.01325799      15.01313112      15.01292803      15.01268633      15.01252142      15.01255612      15.01269114      15.01287109      15.01313903
        15.01353181      15.01414150      15.01494729      15.01582769      15.01688914      15.01818123      15.01951503      15.02069228      15.02176691      15.02272832      15.02361880      15.02462168      15.02591693      15.02758042      15.02950578      15.03157967      15.03410714      15.03729781      15.04104761      15.04542915
        15.05024064      15.05530278      15.06037408      15.06494950      15.06843827      15.07031805      15.07064043      15.07024459      15.06911498      15.06690113      15.06376455      15.06077514      15.05801765      15.05604062      15.05515960      15.05525803      15.05590783      15.05657260      15.05732252      15.05833925
        15.05936167      15.05968829      15.05910752      15.05757060      15.05512634      15.05230902      15.05028223      15.04904011      15.04865477      15.04868725      15.04874307      15.04876580      15.04905126      15.04966996      15.05051733      15.05174098      15.05327571      15.05450762      15.05515648      15.05554462
        15.29712957      15.29785111      15.29901429      15.29938946      15.29784549      15.29164008      15.27899170      15.26000990      15.23958440      15.22032593      15.20223831      15.18467511      15.16780600      15.15294384      15.13853808      15.12446871      15.10735930      15.08801719      15.07045658      15.05506679
        15.04216163      15.03289191      15.02703988      15.02332646      15.02100740      15.01961245      15.01871659      15.01816389      15.01793748      15.01795609      15.01813726      15.01808265      15.01781775      15.01756461      15.01731728      15.01708471      15.01702251      15.01709058      15.01716922      15.01731170
        15.01764736      15.01824377      15.01907266      15.01999311      15.02110935      15.02249089      15.02388512      15.02507331      15.02618716      15.02721742      15.02826800      15.02948119      15.03104743      15.03303476      15.03533865      15.03789088      15.04112396      15.04501567      15.04935868      15.05430258
        15.05991510      15.06591653      15.07200206      15.07764963      15.08228597      15.08515051      15.08646592      15.08690181      15.08645603      15.08478830      15.08166476      15.07812971      15.07489495      15.07238194      15.07093082      15.07056608      15.07097976      15.07153487      15.07216563      15.07291893
        15.07376204      15.07435907      15.07433013      15.07324252      15.07105463      15.06835175      15.06582185      15.06399411      15.06314400      15.06333551      15.06388605      15.06431351      15.06462587      15.06495965      15.06515956      15.06577684      15.06698753      15.06834277      15.06931390      15.06965454
        15.33174515      15.33257994      15.33425592      15.33480038      15.33298004      15.32689823      15.31542300      15.29777314      15.27737085      15.25718779      15.23854909      15.22121621      15.20380779      15.18818518      15.17344509      15.15768904      15.13880665      15.11662387      15.09506903      15.07578906
        15.05877946      15.04552170      15.03710399      15.03185659      15.02850085      15.02647736      15.02530549      15.02457093      15.02417090      15.02399767      15.02407428      15.02391898      15.02343870      15.02303345      15.02269885      15.02237983      15.02224489      15.02221761      15.02220120      15.02218433
        15.02236752      15.02283829      15.02358998      15.02452743      15.02562056      15.02691589      15.02814520      15.02930293      15.03038747      15.03145765      15.03270802      15.03416968      15.03599938      15.03825913      15.04086497      15.04391842      15.04781555      15.05248160      15.05750584      15.06296138
        15.06904311      15.07577934      15.08282446      15.08973126      15.09566904      15.09995406      15.10261539      15.10419077      15.10480549      15.10391729      15.10126763      15.09709885      15.09328473      15.09034685      15.08822303      15.08702505      15.08705266      15.08760208      15.08819962      15.08884081
        15.08934772      15.08995092      15.09051755      15.09034493      15.08866221      15.08611700      15.08308558      15.08053789      15.07902040      15.07907528      15.07996219      15.08085702      15.08138026      15.08153713      15.08141288      15.08128260      15.08176389      15.08299800      15.08413266      15.08457623
        15.35841404      15.35935107      15.36077975      15.36109368      15.35928685      15.35393702      15.34332268      15.32755677      15.30866095      15.28871837      15.26942785      15.25230797      15.23595262      15.21997602      15.20569062      15.19021624      15.17097646      15.14774238      15.12359279      15.10069833
        15.07978559      15.06214144      15.05003435      15.04259428      15.03790894      15.03499069      15.03328443      15.03231373      15.03180527      15.03152083      15.03136406      15.03098564      15.03025093      15.02948981      15.02899321      15.02853312      15.02826712      15.02812204      15.02800396      15.02787457
        15.02783808      15.02802818      15.02856361      15.02938691      15.03041367      15.03150682      15.03251605      15.03355030      15.03454047      15.03567073      15.03701443      15.03865821      15.04069229      15.04319252      15.04603962      15.04956031      15.05412531      15.05945917      15.06504703      15.07093516
        15.07742337      15.08473138      15.09259895      15.10067279      15.10804459      15.11443245      15.11891986      15.12205616      15.12422271      15.12446520      15.12267475      15.11845439      15.11344652      15.10978158      15.10700023      15.10498303      15.10432856      15.10482952      15.10543566      15.10599493
        15.10624245      15.10680637      15.10783031      15.10847910      15.10789904      15.10555308      15.10226586      15.09890404      15.09652712      15.09593782      15.09685432      15.09812710      15.09897671      15.09918997      15.09902635      15.09837574      15.09803445      15.09858343      15.09972443      15.10035498
        15.37885700      15.37940090      15.38023564      15.38018996      15.37849072      15.37373542      15.36400013      15.34949513      15.33233702      15.31407597      15.29543244      15.27811710      15.26289841      15.24754651      15.23334161      15.21900708      15.20118944      15.17857678      15.15376168      15.12893817
        15.10490532      15.08314673      15.06657798      15.05608318      15.04942592      15.04535671      15.04275768      15.04128244      15.04065905      15.04035433      15.03993718      15.03934595      15.03838069      15.03722768      15.03646941      15.03580083      15.03522579      15.03480727      15.03448860      15.03420408
        15.03391006      15.03377295      15.03393381      15.03446311      15.03532542      15.03619354      15.03698834      15.03779573      15.03870865      15.03982104      15.04116236      15.04290061      15.04513312      15.04787488      15.05098981      15.05491456      15.05992590      15.06564369      15.07156577      15.07779317
        15.08471646      15.09258037      15.10127431      15.11044482      15.11952112      15.12789424      15.13459135      15.13981412      15.14415118      15.14640614      15.14608571      15.14288063      15.13690848      15.13158062      15.12780559      15.12480449      15.12315932      15.12304717      15.12361144      15.12383215
        15.12405240      15.12495164      15.12633790      15.12735642      15.12741026      15.12580322      15.12275230      15.11913883      15.11625921      15.11475496      15.11533816      15.11668672      15.11771847      15.11793645      15.11745697      15.11644121      15.11559687      15.11517190      15.11588766      15.11661050
        15.39320326      15.39350479      15.39386164      15.39357724      15.39184288      15.38737170      15.37882534      15.36567963      15.35000076      15.33339343      15.31644826      15.29970264      15.28475213      15.27041496      15.25641580      15.24283319      15.22708759      15.20679898      15.18284280      15.15781698
        15.13254174      15.10773673      15.08693777      15.07257317      15.06322415      15.05745749      15.05380355      15.05149297      15.05046413      15.05006890      15.04957800      15.04894871      15.04799049      15.04665717      15.04548722      15.04462059      15.04363036      15.04269770      15.04191201      15.04130632
        15.04070013      15.04012924      15.03986006      15.03994252      15.04046595      15.04103294      15.04151764      15.04208767      15.04289370      15.04391698      15.04529133      15.04709316      15.04952518      15.05253112      15.05595720      15.06018803      15.06534924      15.07110167      15.07716153      15.08372990
        15.09110746      15.09952152      15.10910871      15.11950633      15.13028036      15.14055524      15.14957239      15.15748863      15.16459351      15.16964492      15.17149489      15.17008407      15.16462383      15.15722825      15.15139595      15.14704185      15.14412757      15.14289765      15.14293226      15.14263585
        15.14289501      15.14404521      15.14546415      15.14656571      15.14668070      15.14584881      15.14358259      15.14047509      15.13742128      15.13549591      15.13547501      15.13675431      15.13751452      15.13744795      15.13648373      15.13506133      15.13364895      15.13238102      15.13208893      15.13243382
        15.40233884      15.40262199      15.40286635      15.40246315      15.40054270      15.39648794      15.38924498      15.37807964      15.36406853      15.34880967      15.33351461      15.31829707      15.30344026      15.28960723      15.27601737      15.26279014      15.24859423      15.23133641      15.20994334      15.18614208
        15.16106032      15.13478262      15.11058266      15.09206825      15.07946400      15.07131165      15.06633423      15.06298672      15.06124402      15.06057379      15.06016178      15.05963382      15.05885577      15.05750436      15.05599966      15.05490636      15.05360813      15.05202793      15.05055416      15.04938845
        15.04828473      15.04715389      15.04636247      15.04591783      15.04586009      15.04595178      15.04605596      15.04640080      15.04701855      15.04793130      15.04931499      15.05124515      15.05391213      15.05723433      15.06102857      15.06544225      15.07052628      15.07614569      15.08237563      15.08926819
        15.09700743      15.10590171      15.11637122      15.12826166      15.14081510      15.15311665      15.16461245      15.17558610      15.18601266      15.19449595      15.19929052      15.20048062      15.19661918      15.18790132      15.17916065      15.17272864      15.16807616      15.16518917      15.16414036      15.16344640
        15.16330972      15.16415508      15.16525682      15.16620818      15.16660417      15.16611808      15.16475571      15.16251290      15.15955508      15.15744049      15.15689832      15.15773046      15.15818616      15.15777135      15.15662750      15.15498807      15.15277770      15.15055687      15.14900750      15.14823762
        15.40670906      15.40707513      15.40724908      15.40673441      15.40485029      15.40120772      15.39513906      15.38625693      15.37463887      15.36109804      15.34705218      15.33368616      15.31994254      15.30624187      15.29284256      15.27969541      15.26620423      15.25123191      15.23291612      15.21158588
        15.18816229      15.16203286      15.13590146      15.11383661      15.09760982      15.08664585      15.07983068      15.07543059      15.07277140      15.07168481      15.07125744      15.07083679      15.07018131      15.06902448      15.06743446      15.06600566      15.06457324      15.06261119      15.06045410      15.05855762
        15.05677953      15.05504335      15.05342006      15.05226519      15.05145616      15.05092760      15.05066088      15.05065108      15.05094564      15.05167483      15.05308745      15.05526235      15.05830773      15.06205778      15.06624258      15.07076944      15.07572267      15.08122820      15.08759960      15.09482027
        15.10290662      15.11215602      15.12351978      15.13686795      15.15128566      15.16586554      15.18021047      15.19465414      15.20885623      15.22135738      15.23084487      15.23499981      15.23301918      15.22404665      15.21252101      15.20297198      15.19603695      15.19086365      15.18796327      15.18668026
        15.18581240      15.18579670      15.18630977      15.18674718      15.18728544      15.18721315      15.18669722      15.18510043      15.18273488      15.18028661      15.17918107      15.17927098      15.17947690      15.17898501      15.17779490      15.17592912      15.17320345      15.17011408      15.16749492      15.16599911
        15.40691346      15.40731684      15.40739526      15.40678729      15.40509030      15.40192443      15.39676912      15.38952160      15.38036254      15.36951318      15.35726509      15.34539348      15.33356126      15.32089956      15.30783999      15.29455364      15.28115515      15.26712150      15.25124221      15.23236937
        15.21122260      15.18675082      15.16059775      15.13652888      15.11712716      15.10308734      15.09403358      15.08824787      15.08459686      15.08287637      15.08225014      15.08191604      15.08142381      15.08063152      15.07929117      15.07768734      15.07607532      15.07400140      15.07144511      15.06879772
        15.06636643      15.06391870      15.06132816      15.05914243      15.05745542      15.05625443      15.05547916      15.05487452      15.05455688      15.05485919      15.05658435      15.05929203      15.06293923      15.06716120      15.07162043      15.07617403      15.08099900      15.08645413      15.09296287      15.10046002
        15.10882721      15.11840903      15.13040782      15.14484399      15.16107127      15.17837798      15.19584530      15.21403356      15.23238040      15.24997378      15.26551768      15.27369991      15.27354522      15.26487189      15.25103392      15.23744279      15.22747415      15.21997061      15.21463850      15.21177888
        15.20999003      15.20849672      15.20790172      15.20776320      15.20787032      15.20805851      15.20805567      15.20698507      15.20542559      15.20292421      15.20104805      15.20025783      15.20007810      15.19958225      15.19828473      15.19614564      15.19340398      15.19011687      15.18685856      15.18520378
        15.40394950      15.40413641      15.40398172      15.40317579      15.40157498      15.39879987      15.39446257      15.38840742      15.38102729      15.37295853      15.36355352      15.35359008      15.34384211      15.33316643      15.32140420      15.30864374      15.29520107      15.28126174      15.26646996      15.24943028
        15.23018307      15.20775144      15.18268573      15.15827955      15.13681680      15.12008648      15.10873398      15.10108500      15.09625880      15.09373974      15.09280068      15.09254386      15.09229259      15.09189935      15.09099702      15.08945991      15.08760918      15.08538904      15.08274859      15.07966026
        15.07669907      15.07364399      15.07017248      15.06683106      15.06406382      15.06209522      15.06063294      15.05924257      15.05782880      15.05678524      15.05982762      15.06364820      15.06799956      15.07258556      15.07714842      15.08164598      15.08642148      15.09182713      15.09832605      15.10605095
        15.11464863      15.12456503      15.13696486      15.15224853      15.17026649      15.19046961      15.21159156      15.23375076      15.25656006      15.28008622      15.30207459      15.31594873      15.31792923      15.31000562      15.29425692      15.27655216      15.26239980      15.25210527      15.24416881      15.23882447
        15.23553780      15.23253778      15.23052177      15.22942673      15.22850626      15.22818748      15.22825912      15.22784725      15.22684678      15.22468923      15.22216695      15.22050152      15.21959104      15.21872914      15.21751837      15.21551526      15.21289124      15.20989829      15.20687938      15.20509778
        15.39853437      15.39831865      15.39757844      15.39640509      15.39470917      15.39216035      15.38842623      15.38341747      15.37738248      15.37121263      15.36457639      15.35726229      15.34990854      15.34210754      15.33274104      15.32153981      15.30875975      15.29504663      15.28037250      15.26432810
        15.24619841      15.22549035      15.20179255      15.17783852      15.15566706      15.13698962      15.12345899      15.11395454      15.10767058      15.10413535      15.10269635      15.10238717      15.10239698      15.10234759      15.10183086      15.10043502      15.09856566      15.09629101      15.09363536      15.09056952
        15.08725905      15.08382651      15.07981178      15.07545615      15.07152019      15.06858594      15.06635127      15.06420129      15.06121812      15.05479765      15.06329651      15.06874391      15.07363348      15.07844385      15.08298625      15.08736177      15.09196443      15.09726091      15.10364344      15.11144859
        15.12038964      15.13075686      15.14366550      15.15984966      15.17949721      15.20236533      15.22724081      15.25367410      15.28153273      15.31097070      15.33991671      15.36030917      15.36574144      15.35878635      15.34226133      15.32139554      15.30188311      15.28705645      15.27563987      15.26763783
        15.26227727      15.25796900      15.25449486      15.25216470      15.25023858      15.24874884      15.24816001      15.24822782      15.24728819      15.24529213      15.24249058      15.24007463      15.23826522      15.23670753      15.23558681      15.23411990      15.23196407      15.22944706      15.22712130      15.22548079
        15.39121012      15.39043991      15.38886134      15.38702083      15.38513614      15.38267443      15.37926173      15.37494111      15.36984731      15.36470455      15.35991176      15.35522858      15.35066108      15.34586384      15.33988997      15.33165386      15.32060980      15.30792996      15.29369473      15.27821099
        15.26075729      15.24090787      15.21864317      15.19524361      15.17302932      15.15344872      15.13807708      15.12682292      15.11911065      15.11438550      15.11208523      15.11138890      15.11147175      15.11167843      15.11145676      15.11035244      15.10860377      15.10649636      15.10398705      15.10119787
        15.09787039      15.09415398      15.08992681      15.08497280      15.08008444      15.07620631      15.07337929      15.07115233      15.06923615      15.06788546      15.07141586      15.07565089      15.08019313      15.08479351      15.08910670      15.09323246      15.09765076      15.10279872      15.10911374      15.11705004
        15.12631752      15.13725540      15.15089289      15.16793730      15.18901953      15.21423521      15.24240782      15.27319139      15.30637681      15.34184158      15.37708412      15.40473259      15.41665769      15.41197656      15.39525262      15.37104234      15.34507111      15.32437134      15.30857656      15.29757907
        15.28975792      15.28408897      15.27941733      15.27592372      15.27306324      15.27033003      15.26842060      15.26772071      15.26656070      15.26433071      15.26132773      15.25846306      15.25606967      15.25401626      15.25256506      15.25161538      15.25044410      15.24860922      15.24671244      15.24548323
        15.38256693      15.38120424      15.37878825      15.37617725      15.37384863      15.37115983      15.36789728      15.36378422      15.35917502      15.35470366      15.35101024      15.34804598      15.34584037      15.34386510      15.34131382      15.33703923      15.32938181      15.31845613      15.30563976      15.29121324
        15.27477655      15.25528573      15.23391055      15.21146922      15.18945956      15.16952120      15.15272093      15.13974400      15.13066999      15.12483676      15.12142503      15.12002482      15.11984594      15.12002623      15.12002652      15.11932882      15.11786689      15.11601028      15.11383516      15.11127228
        15.10815328      15.10436826      15.10020293      15.09518375      15.08982223      15.08511400      15.08173653      15.07948592      15.07816871      15.07798500      15.08003022      15.08327065      15.08722793      15.09138842      15.09535679      15.09925196      15.10359816      15.10870581      15.11515255      15.12318325
        15.13263863      15.14395219      15.15832586      15.17662782      15.19897127      15.22583295      15.25709008      15.29223806      15.33068511      15.37187984      15.41359944      15.44941042      15.46879965      15.46878285      15.45276525      15.42571385      15.39361537      15.36524033      15.34408130      15.32878287
        15.31813159      15.31076951      15.30512393      15.30054000      15.29661203      15.29278953      15.28938920      15.28676729      15.28479528      15.28227763      15.27874744      15.27539643      15.27285650      15.27080670      15.26909002      15.26837214      15.26791556      15.26695194      15.26558789      15.26471137
        15.37295731      15.37113871      15.36800822      15.36477134      15.36171008      15.35847417      15.35503937      15.35091016      15.34658012      15.34266326      15.33962035      15.33767465      15.33697646      15.33719928      15.33735703      15.33679925      15.33366523      15.32617555      15.31553991      15.30277521
        15.28767264      15.26928914      15.24847377      15.22675803      15.20530420      15.18554674      15.16781242      15.15301009      15.14229400      15.13547776      15.13111964      15.12882539      15.12806187      15.12791496      15.12787693      15.12745655      15.12644374      15.12496032      15.12307303      15.12064156