# File generated by Flopy version 3.6.0 on 11/18/2024 at 13:26:30.
BEGIN griddata
  strt
    INTERNAL  FACTOR  1.0
        15.00000000      15.00000000      15.00000000      15.00000000      15.00000000      15.00000000      15.00000000      15.00000000      15.00000000      15.00000000      15.00000000      15.00000000      15.00000000      15.00000000      15.00000000      15.00000000      15.00000000      15.00000000      15.00000000      15.00000000
        15.00000000      15.00000000      15.00000000      15.00000000      15.00000000      15.00000000      15.00000000      15.00000000      15.00000000      15.00000000      15.00000000      15.00000000      15.00000000      15.00000000      15.00000000      15.00000000      15.00000000      15.00000000      15.00000000      15.00000000
        15.00000000      15.00000000      15.00000000      15.00000000      15.00000000      15.00000000      15.00000000      15.00000000      15.00000000      15.00000000      15.00000000      15.00000000      15.00000000      15.00000000      15.00000000      15.00000000      15.00000000      15.00000000      15.00000000      15.00000000
        15.00000000      15.00000000      15.00000000      15.00000000      15.00000000      15.00000000      15.00000000      15.00000000      15.00000000      15.00000000      15.00000000      15.00000000      15.00000000      15.00000000      15.00000000      15.00000000      15.00000000      15.00000000      15.00000000      15.00000000
        15.00000000      15.00000000      15.00000000      15.00000000      15.00000000      15.00000000      15.00000000      15.00000000      15.00000000      15.00000000      15.00000000      15.00000000      15.00000000      15.00000000      15.00000000      15.00000000      15.00000000      15.00000000      15.00000000      15.00000000
        15.03854100      15.03977308      15.04234498      15.04574073      15.04912242      15.05140509      15.04950760      15.04439160      15.03847083      15.03191929      15.02612165      15.02104385      15.01693235      15.01439107      15.01290385      15.01145822      15.00969528      15.00756051      15.00563267      15.00422203
        15.00307741      15.00220298      15.00164802      15.00134924      15.00115389      15.00101456      15.00091758      15.00085542      15.00082953      15.00081908      15.00080516      15.00078602      15.00075551      15.00072293      15.00070581      15.00069837      15.00068278      15.00066863      15.00064477      15.00062119
        15.00061646      15.00061991      15.00062489      15.00065007      15.00069824      15.00074261      15.00079838      15.00089041      15.00102969      15.00121028      15.00143383      15.00174819      15.00221103      15.00289981      15.00382650      15.00491814      15.00608973      15.00749949      15.00930436      15.01141307
        15.01370645      15.01654485      15.01944917      15.02212879      15.02369228      15.02411047      15.02418529      15.02382102      15.02269834      15.02089592      15.01940154      15.01808928      15.01705291      15.01670422      15.01654759      15.01660573      15.01726440      15.01833593      15.01958317      15.02087925
        15.02158878      15.02102387      15.01991605      15.01815514      15.01671681      15.01594474      15.01584715      15.01604815      15.01599063      15.01607438      15.01609321      15.01633345      15.01700039      15.01769900      15.01871258      15.01995447      15.02073654      15.02109451      15.02127946      15.02104269
        15.05838666      15.06010292      15.06349654      15.06807303      15.07318989      15.07684728      15.07501512      15.06767804      15.05882986      15.04949849      15.04076056      15.03358197      15.02756064      15.02338003      15.02077628      15.01858166      15.01602612      15.01297165      15.00994915      15.00756134
        15.00566773      15.00420540      15.00323409      15.00266235      15.00229923      15.00202851      15.00183892      15.00171505      15.00164854      15.00161610      15.00158471      15.00154594      15.00149583      15.00143323      15.00138145      15.00136290      15.00134286      15.00130686      15.00126550      15.00121289
        15.00117894      15.00117696      15.00118053      15.00120331      15.00127008      15.00134657      15.00144577      15.00159393      15.00181065      15.00208939      15.00245376      15.00298253      15.00374794      15.00485747      15.00640512      15.00831067      15.01047636      15.01300452      15.01610636      15.01988634
        15.02410383      15.02882748      15.03378230      15.03865086      15.04247164      15.04423440      15.04487672      15.04481652      15.04359136      15.04149965      15.03934266      15.03736311      15.03579052      15.03511064      15.03507128      15.03550215      15.03665713      15.03814299      15.03989718      15.04195186
        15.04327998      15.04308590      15.04171980      15.03939198      15.03670817      15.03461600      15.03357760      15.03362874      15.03373509      15.03371603      15.03367062      15.03375786      15.03469291      15.03586358      15.03752783      15.03971418      15.04141559      15.04249104      15.04287889      15.04275480
        15.06377955      15.06565272      15.06962002      15.07456364      15.07967087      15.08323574      15.08192979      15.07446711      15.06490165      15.05536689      15.04631073      15.03867144      15.03233799      15.02770900      15.02468791      15.02232771      15.01960680      15.01638074      15.01313306      15.01024153
        15.00788407      15.00602651      15.00477855      15.00398461      15.00346951      15.00307912      15.00277423      15.00257405      15.00246040      15.00239048      15.00233520      15.00226696      15.00219682      15.00211831      15.00204689      15.00200379      15.00197570      15.00191655      15.00184156      15.00175269
        15.00167742      15.00164221      15.00162843      15.00163899      15.00169689      15.00178878      15.00191484      15.00208959      15.00233209      15.00265763      15.00311624      15.00378653      15.00473639      15.00609502      15.00799803      15.01047097      15.01346104      15.01701633      15.02117437      15.02619303
        15.03190741      15.03832307      15.04523019      15.05212469      15.05804775      15.06170176      15.06358303      15.06429527      15.06390761      15.06223072      15.05991260      15.05784982      15.05592696      15.05485405      15.05490842      15.05585955      15.05743862      15.05904688      15.06087127      15.06319801
        15.06497499      15.06542932      15.06428143      15.06203265      15.05862280      15.05533653      15.05331591      15.05273972      15.05293899      15.05298782      15.05291293      15.05291810      15.05379945      15.05521457      15.05724843      15.05972335      15.06208021      15.06370534      15.06429459      15.06454682
        15.05816847      15.05973202      15.06364816      15.06806971      15.07214082      15.07487948      15.07408614      15.06825867      15.06004757      15.05173933      15.04384686      15.03714543      15.03174512      15.02787222      15.02528794      15.02332353      15.02105682      15.01817568      15.01519476      15.01228157
        15.00974607      15.00772023      15.00628879      15.00533067      15.00466581      15.00416181      15.00374830      15.00344515      15.00325754      15.00314243      15.00306110      15.00296005      15.00286224      15.00277320      15.00269258      15.00262023      15.00256091      15.00246816      15.00234142      15.00220626
        15.00209124      15.00201146      15.00196442      15.00194866      15.00198659      15.00207281      15.00220224      15.00237890      15.00262275      15.00296689      15.00347776      15.00423917      15.00531584      15.00682516      15.00892394      15.01176594      15.01548035      15.02001170      15.02512588      15.03103149
        15.03798159      15.04601232      15.05466968      15.06359511      15.07163376      15.07757870      15.08130626      15.08346775      15.08448240      15.08379488      15.08163798      15.07945886      15.07735905      15.07604270      15.07597413      15.07714178      15.07883906      15.08052909      15.08234643      15.08455296
        15.08663158      15.08755383      15.08699385      15.08493934      15.08155212      15.07761686      15.07500233      15.07357644      15.07346174      15.07396257      15.07446212      15.07487989      15.07566644      15.07690615      15.07845923      15.08055372      15.08304458      15.08499904      15.08598897      15.08658526
        15.04373810      15.04484708      15.04753734      15.05070646      15.05359289      15.05595004      15.05597753      15.05250504      15.04677341      15.04066266      15.03485066      15.03021622      15.02674413      15.02426146      15.02275980      15.02161035      15.02024353      15.01827436      15.01602946      15.01362012
        15.01126267      15.00923242      15.00772702      15.00664688      15.00584836      15.00523559      15.00473617      15.00433439      15.00405486      15.00386849      15.00374262      15.00360742      15.00347388      15.00336565      15.00327244      15.00317245      15.00306602      15.00292162      15.00274342      15.00255652
        15.00239591      15.00226844      15.00217917      15.00213138      15.00214230      15.00220513      15.00231589      15.00248210      15.00272469      15.00307524      15.00360936      15.00443706      15.00562462      15.00723063      15.00939573      15.01249040      15.01679726      15.02215415      15.02817468      15.03499104
        15.04298570      15.05237535      15.06277474      15.07374106      15.08410964      15.09237533      15.09837390      15.10250939      15.10540473      15.10643777      15.10513240      15.10286717      15.10063036      15.09902064      15.09857803      15.09948455      15.10114617      15.10293111      15.10482063      15.10689824
        15.10890266      15.11034943      15.11068644      15.10932447      15.10630358      15.10254250      15.09921389      15.09696394      15.09624954      15.09712269      15.09849718      15.09964181      15.10055047      15.10139834      15.10196044      15.10313344      15.10515751      15.10735959      15.10889836      15.10942891
        15.02335355      15.02392859      15.02531892      15.02728249      15.02937848      15.03159841      15.03226977      15.03101533      15.02819685      15.02515578      15.02206895      15.01971390      15.01832436      15.01739667      15.01706091      15.01709109      15.01706026      15.01659747      15.01562410      15.01416128
        15.01242525      15.01059664      15.00907679      15.00793448      15.00702944      15.00629858      15.00570708      15.00521476      15.00484672      15.00456978      15.00436993      15.00418701      15.00401366      15.00387239      15.00375175      15.00361994      15.00346742      15.00326660      15.00303589      15.00279587
        15.00257882      15.00239354      15.00225199      15.00216521      15.00214369      15.00217855      15.00227124      15.00242760      15.00266606      15.00301924      15.00356188      15.00442570      15.00569989      15.00740310      15.00959351      15.01279161      15.01748642      15.02349485      15.03035866      15.03808258
        15.04700768      15.05756235      15.06949456      15.08256048      15.09527930      15.10635052      15.11532497      15.12208995      15.12752554      15.13063117      15.13079783      15.12849360      15.12624926      15.12471581      15.12384936      15.12399613      15.12544631      15.12756171      15.12970546      15.13188723
        15.13358452      15.13522345      15.13664324      15.13682659      15.13463937      15.13111449      15.12694392      15.12351306      15.12176812      15.12253005      15.12455003      15.12653348      15.12784596      15.12846059      15.12853986      15.12854087      15.12942474      15.13149027      15.13334454      15.13405810
        14.99974158      14.99992276      15.00065743      15.00201388      15.00367409      15.00564309      15.00715968      15.00749100      15.00726267      15.00730497      15.00713214      15.00702738      15.00735512      15.00812835      15.00900979      15.01027453      15.01178225      15.01314100      15.01387520      15.01379392
        15.01306182      15.01176347      15.01033915      15.00916488      15.00818122      15.00732239      15.00660592      15.00601231      15.00555643      15.00518947      15.00489646      15.00465345      15.00444052      15.00425524      15.00409477      15.00391944      15.00370346      15.00342647      15.00312781      15.00283464
        15.00257033      15.00233715      15.00214739      15.00201961      15.00196335      15.00197394      15.00205704      15.00220599      15.00244471      15.00280547      15.00335425      15.00422555      15.00555291      15.00733637      15.00956847      15.01278126      15.01767252      15.02404372      15.03137470      15.03975585
        15.04957047      15.06122245      15.07455681      15.08937584      15.10450472      15.11902129      15.13150910      15.14159441      15.15039145      15.15634302      15.15884683      15.15765282      15.15484459      15.15308309      15.15184065      15.15128485      15.15214692      15.15460129      15.15712992      15.15954851
        15.16112325      15.16297965      15.16539185      15.16708028      15.16674071      15.16344352      15.15867705      15.15375931      15.15057308      15.15037149      15.15256044      15.15527200      15.15720110      15.15796402      15.15801391      15.15716281      15.15670098      15.15766602      15.15957959      15.16062717
        14.97405784      14.97453597      14.97534092      14.97654026      14.97767222      14.97935940      14.98186413      14.98410553      14.98616241      14.98848329      14.99076567      14.99305417      14.99492561      14.99734378      14.99973055      15.00219601      15.00510231      15.00823012      15.01077369      15.01228116
        15.01284031      15.01240423      15.01133368      15.01023906      15.00921020      15.00824423      15.00738279      15.00665681      15.00610049      15.00564132      15.00525882      15.00495157      15.00469687      15.00446414      15.00424242      15.00399837      15.00369577      15.00333014      15.00296047      15.00261488
        15.00231709      15.00205322      15.00183098      15.00167113      15.00157839      15.00156803      15.00164657      15.00179939      15.00203839      15.00240253      15.00295864      15.00382721      15.00517947      15.00703135      15.00933493      15.01253175      15.01734371      15.02375168      15.03125615      15.03988198
        15.05028203      15.06291533      15.07777094      15.09448016      15.11227617      15.12993672      15.14606948      15.16011888      15.17314956      15.18332775      15.18934726      15.19102824      15.18823976      15.18518007      15.18327362      15.18193542      15.18191188      15.18400289      15.18696314      15.18924341
        15.19109560      15.19384256      15.19715750      15.19965385      15.20040235      15.19820610      15.19362477      15.18807615      15.18394505      15.18223777      15.18399683      15.18697781      15.18930227      15.19011819      15.18963546      15.18813025      15.18678328      15.18608567      15.18731680      15.18855864
        14.94793667      14.94877107      14.94995860      14.95116267      14.95202981      14.95401675      14.95704974      14.96117646      14.96535249      14.96951241      14.97351307      14.97798096      14.98183321      14.98574781      14.98970147      14.99337058      14.99729403      15.00172274      15.00591787      15.00904920
        15.01114750      15.01202415      15.01175609      15.01098994      15.01003055      15.00899674      15.00803243      15.00716032      15.00646334      15.00588644      15.00540504      15.00501506      15.00469637      15.00440260      15.00410092      15.00376444      15.00336946      15.00291426      15.00247229      15.00206963
        15.00173937      15.00146610      15.00123405      15.00106784      15.00095444      15.00093044      15.00101233      15.00116989      15.00140511      15.00177074      15.00232074      15.00319141      15.00454229      15.00641723      15.00880085      15.01198133      15.01657664      15.02270687      15.03016034      15.03893395
        15.04965076      15.06302108      15.07940149      15.09830754      15.11875703      15.13938394      15.15907020      15.17760315      15.19562077      15.21112297      15.22188356      15.22762053      15.22724469      15.22308625      15.21954448      15.21715465      15.21593378      15.21697788      15.21968932      15.22154136
        15.22383889      15.22734808      15.23094555      15.23372015      15.23460879      15.23369862      15.23031316      15.22543628      15.22084239      15.21836973      15.21916741      15.22216369      15.22409641      15.22442296      15.22305483      15.22077380      15.21838285      15.21618240      15.21567797      15.21629423
        14.92140694      14.92251373      14.92372477      14.92489224      14.92626853      14.92861681      14.93193586      14.93718711      14.94318410      14.94943630      14.95506981      14.96104897      14.96710458      14.97270160      14.97821395      14.98333013      14.98833053      14.99367947      14.99924807      15.00409426
        15.00794131      15.01049038      15.01148045      15.01140345      15.01070838      15.00967261      15.00860521      15.00755271      15.00665023      15.00589752      15.00527402      15.00476287      15.00434370      15.00396402      15.00356159      15.00309324      15.00258046      15.00203831      15.00152997      15.00107695
        15.00074287      15.00049871      15.00028379      15.00013355      15.00003438      15.00002048      15.00011532      15.00026688      15.00049696      15.00086689      15.00141289      15.00226707      15.00360878      15.00545592      15.00784516      15.01096480      15.01529461      15.02116095      15.02859098      15.03747887
        15.04824973      15.06191328      15.07944626      15.10065318      15.12398005      15.14775003      15.17132305      15.19474252      15.21828048      15.23991081      15.25695070      15.26873008      15.27297941      15.26909233      15.26294849      15.25873371      15.25575922      15.25499756      15.25655494      15.25820499
        15.26021279      15.26352883      15.26679883      15.26945508      15.27092918      15.27063521      15.26876206      15.26523152      15.26058941      15.25767831      15.25758000      15.25985325      15.26124119      15.26091423      15.25917837      15.25646307      15.25259040      15.24863603      15.24588135      15.24453137
        14.89528955      14.89655096      14.89767578      14.89890670      14.90090123      14.90358808      14.90713388      14.91214727      14.91855924      14.92645782      14.93412861      14.94136479      14.94934316      14.95729581      14.96495285      14.97209884      14.97872764      14.98516633      14.99191324      14.99828065
        15.00377735      15.00809413      15.01063380      15.01156968      15.01129801      15.01029189      15.00909025      15.00781929      15.00664913      15.00565439      15.00483321      15.00415903      15.00360041      15.00308144      15.00252176      15.00188045      15.00119219      15.00053377      14.99995916      14.99947645
        14.99917013      14.99897177      14.99885012      14.99876713      14.99873904      14.99878352      14.99889008      14.99905074      14.99928485      14.99965176      15.00021881      15.00105053      15.00234914      15.00415559      15.00646472      15.00944538      15.01349079      15.01913317      15.02657375      15.03562723
        15.04644010      15.06006937      15.07835651      15.10148025      15.12778571      15.15537337      15.18337457      15.21233849      15.24230186      15.27095872      15.29708918      15.31610884      15.32536600      15.32334279      15.31533694      15.30820434      15.30290930      15.29955540      15.29886964      15.30009618
        15.30124139      15.30340937      15.30588717      15.30779059      15.30964031      15.31013489      15.30978802      15.30729335      15.30347562      15.29971020      15.29845624      15.29935369      15.30026530      15.29975869      15.29788720      15.29469978      15.28983032      15.28424984      15.27953941      15.27688685
        14.87151163      14.87231666      14.87341970      14.87453895      14.87643937      14.87920713      14.88282152      14.88710146      14.89233928      14.90033642      14.91012962      14.91929198      14.92859794      14.93894817      14.94945499      14.95954841      14.96861684      14.97692081      14.98493703      14.99266233
        14.99955656      15.00534610      15.00937343      15.01145842      15.01180329      15.01088996      15.00951466      15.00796471      15.00647723      15.00517006      15.00409732      15.00320690      15.00244615      15.00170331      15.00089751      15.00000799      14.99907087      14.99821944      14.99752514      14.99702366
        14.99673293      14.99661583      14.99667990      14.99679442      14.99693153      14.99708131      14.99723000      14.99744549      14.99772201      14.99808144      14.99866062      14.99949388      15.00073261      15.00247770      15.00469614      15.00750869      15.01124135      15.01657046      15.02404559      15.03339700
        15.04436587      15.05808238      15.07666253      15.10102018      15.13007275      15.16232846      15.19582285      15.23094253      15.26790378      15.30508444      15.34138837      15.36862315      15.38321677      15.38422017      15.37560410      15.36489411      15.35673288      15.35100847      15.34724122      15.34644884
        15.34644719      15.34631026      15.34701431      15.34803511      15.34920136      15.35024129      15.35082443      15.34915906      15.34660355      15.34238333      15.33943988      15.33858930      15.33872243      15.33814689      15.33601560      15.33227104      15.32733725      15.32137123      15.31547452      15.31256068
        14.85009734      14.85009670      14.85060128      14.85119544      14.85255442      14.85476209      14.85795338      14.86199352      14.86634977      14.87303465      14.88312265      14.89422448      14.90486797      14.91727477      14.93073897      14.94436753      14.95689534      14.96802345      14.97796871      14.98717364
        14.99543538      15.00258318      15.00799819      15.01121962      15.01227909      15.01154359      15.00997959      15.00807417      15.00619207      15.00449430      15.00307439      15.00188340      15.00083542      14.99976588      14.99859219      14.99735989      14.99614003      14.99503486      14.99411122      14.99351801
        14.99319935      14.99316831      14.99349900      14.99397472      14.99443668      14.99477557      14.99504713      14.99536313      14.99572678      14.99611185      14.99665377      14.99746651      14.99865710      15.00032971      15.00247233      15.00520040      15.00873718      15.01371959      15.02100032      15.03073161
        15.04220868      15.05627900      15.07519896      15.10040011      15.13196684      15.16889454      15.20887453      15.25078019      15.29474210      15.34108687      15.38764928      15.42533670      15.44645323      15.45216222      15.44411640      15.43037017      15.41793206      15.40928483      15.40215629      15.39779735
        15.39559762      15.39299041      15.39126330      15.39060603      15.38984709      15.38989185      15.39052546      15.38993550      15.38820132      15.38431959      15.37983035      15.37711680      15.37574568      15.37439209      15.37235501      15.36881147      15.36407156      15.35864947      15.35320172      15.35008350
        14.83051844      14.82987338      14.82924489      14.82912416      14.82977380      14.83129570      14.83365956      14.83724695      14.84129848      14.84638994      14.85464465      14.86601136      14.87802844      14.89160367      14.90774015      14.92529023      14.94215546      14.95710609      14.97018690      14.98150222
        14.99152206      15.00012490      15.00686253      15.01112587      15.01284235      15.01230454      15.01055433      15.00823743      15.00584045      15.00363384      15.00176919      15.00019453      14.99875304      14.99724899      14.99562903      14.99400991      14.99240691      14.99092676      14.98967429      14.98882219
        14.98845283      14.98849427      14.98907998      14.99004399      14.99103967      14.99176092      14.99228689      14.99274693      14.99319808      14.99365391      14.99416504      14.99493111      14.99608742      14.99766982      14.99973608      15.00247640      15.00604201      15.01080424      15.01781682      15.02758996
        15.03983011      15.05477741      15.07448143      15.10079700      15.13452972      15.17542339      15.22140322      15.27053109      15.32287453      15.37875589      15.43687774      15.48663712      15.51681250      15.52799446      15.52218185      15.50693155      15.48859333      15.47434483      15.46227000      15.45394002
        15.44839310      15.44352426      15.43910142      15.43608438      15.43333659      15.43099967      15.43023249      15.43045927      15.42862644      15.42473253      15.41934745      15.41490321      15.41161710      15.40880454      15.40685116      15.40426105      15.40037302      15.39583824      15.39170473      15.38888332
        14.81260254      14.81137668      14.80970983      14.80856978      14.80861912      14.80961352      14.81126376      14.81398415      14.81740385      14.82112974      14.82714059      14.83680138      14.84922735      14.86340650      14.88096242      14.90203145      14.92424732      14.94391510      14.96103010      14.97528569
        14.98756793      14.99792692      15.00588297      15.01113653      15.01346881      15.01310687      15.01115934      15.00838982      15.00540941      15.00258949      15.00017411      14.99814009      14.99622769      14.99420782      14.99207618      14.98993946      14.98782894      14.98583776      14.98412949      14.98286553
        14.98238623      14.98256619      14.98336891      14.98482236      14.98645389      14.98774544      14.98867294      14.98938767      14.98998071      14.99055368      14.99113521      14.99190331      14.99304786      14.99458790      14.99653349      14.99919958      15.00294292      15.00778789      15.01467613      15.02444652
        15.03710925      15.05322031      15.07435049      15.10206942      15.13777832      15.18228820      15.23375985      15.29043423      15.35231715      15.41903674      15.48851552      15.55148498      15.59440558      15.61240396      15.60987117      15.59289936      15.56692186      15.54498903      15.52643901      15.51337836
        15.50343008      15.49605136      15.48937316      15.48413504      15.47954998      15.47472061      15.47125391      15.46981409      15.46729464      15.46259350      15.45642512      15.45076599      15.44610570      15.44215664      15.43942859      15.43772337      15.43565183      15.43239441      15.42908938      15.42709245
        14.79644163      14.79481062      14.79254140      14.79062241      14.78993084      14.79019500      14.79130889      14.79304272      14.79558297      14.79852983      14.80307704      14.81068109      14.82183382      14.83593461      14.85367624      14.87633950      14.90334294      14.92902195      14.95042355      14.96795196
        14.98282885      14.99543284      15.00479343      15.01098576      15.01389868      15.01376729      15.01166597      15.00836394      15.00471372      15.00123501      14.99822762      14.99563827      14.99315768      14.99058680      14.98785610      14.98507768      14.98234320      14.97970957      14.97739046      14.97576739
        14.97514720      14.97547331      14.97641018      14.97818452      14.98037153      14.98239676      14.98390919      14.98501572      14.98589532      14.98670749      14.98748438      14.98836595      14.98953570      14.99110812      14.99302460      14.99553022      14.99921877      15.00428047      15.01132399      15.02121730
        15.03422032      15.05123253      15.07413220      15.10439211      15.14239700      15.18974705      15.24667356      15.31114492      15.38258470      15.45983773      15.54129353      15.61898837      15.67580448      15.70420036      15.70673947      15.68890836      15.65601288      15.62324723      15.59621358      15.57579763
        15.56070510      15.55022715      15.54173815      15.53441577      15.52775438      15.52075410      15.51419099      15.50864487      15.50420765      15.49859537      15.49097504      15.48395339      15.47870234      15.47453117      15.47111562      15.46972947      15.46894524      15.46731496      15.46505274      15.46378389
        14.78180046      14.78008471      14.77756826      14.77534612      14.77388467      14.77328478      14.77372209      14.77473338      14.77649294      14.77895973      14.78258175      14.78868775      14.79812513      14.81138671      14.82827550      14.85067990      14.87972283      14.91093815      14.93739532      14.95882651
        14.97677799      14.99168627      15.00273715      15.00995048      15.01345826      15.01367544      15.01160247      15.00783896      15.00351470      14.99937707      14.99571727      14.99245952      14.98938186      14.98623702      14.98289264      14.97942390      14.97588205      14.97245747      14.96955810      14.96775607