# File generated by Flopy version 3.6.0 on 05/28/2024 at 10:02:16.
BEGIN griddata
  strt
    INTERNAL  FACTOR  1.0
        15.00000000      15.00000000      15.00000000      15.00000000      15.00000000      15.00000000      15.00000000      15.00000000      15.00000000      15.00000000      15.00000000      15.00000000      15.00000000      15.00000000      15.00000000      15.00000000      15.00000000      15.00000000      15.00000000      15.00000000
        15.00000000      15.00000000      15.00000000      15.00000000      15.00000000      15.00000000      15.00000000      15.00000000      15.00000000      15.00000000      15.00000000      15.00000000      15.00000000      15.00000000      15.00000000      15.00000000      15.00000000      15.00000000      15.00000000      15.00000000
        15.00000000      15.00000000      15.00000000      15.00000000      15.00000000      15.00000000      15.00000000      15.00000000      15.00000000      15.00000000      15.00000000      15.00000000      15.00000000      15.00000000      15.00000000      15.00000000      15.00000000      15.00000000      15.00000000      15.00000000
        15.00000000      15.00000000      15.00000000      15.00000000      15.00000000      15.00000000      15.00000000      15.00000000      15.00000000      15.00000000      15.00000000      15.00000000      15.00000000      15.00000000      15.00000000      15.00000000      15.00000000      15.00000000      15.00000000      15.00000000
        15.00000000      15.00000000      15.00000000      15.00000000      15.00000000      15.00000000      15.00000000      15.00000000      15.00000000      15.00000000      15.00000000      15.00000000      15.00000000      15.00000000      15.00000000      15.00000000      15.00000000      15.00000000      15.00000000      15.00000000
        15.00575260      15.00589188      15.00804069      15.01100513      15.01107905      15.01038512      15.01060710      15.01114267      15.01176559      15.01252042      15.01198646      15.01077734      15.01122170      15.01011609      15.01069404      15.01143500      15.01125659      15.01265450      15.01361647      15.01576038
        15.01736358      15.02351471      15.03658594      15.05162557      15.05593942      15.03039396      15.02319782      15.02948614      15.03845847      15.04219429      15.04252926      15.04389043      15.03918667      15.03007039      15.02381682      15.02086291      15.02171249      15.02350930      15.02091498      15.01795538
        15.01508675      15.01548816      15.01738798      15.02103731      15.02277056      15.02352566      15.02230786      15.02586805      15.03456997      15.05038051      15.02837091      15.01510387      15.01295620      15.01470323      15.01669585      15.01855342      15.02345690      15.02956690      15.03264142      15.03383080
        15.02812632      15.02825867      15.03357675      15.04004178      15.04481562      15.05652612      15.07928868      15.11780795      15.12109598      15.10182852      15.05823349      15.04076316      15.03017994      15.02516298      15.02217185      15.02278970      15.02529913      15.03070943      15.03418309      15.03362615
        15.03601098      15.04047193      15.03390012      15.03173705      15.03779091      15.05458403      15.06486240      15.06259220      15.06950047      15.09074014      15.11030696      15.11544818      15.09718751      15.06633027      15.03723822      15.02733268      15.02675126      15.02573493      15.02977149      15.03176757
        15.01480523      15.01383367      15.01670682      15.02156797      15.02421635      15.02314832      15.02243751      15.02476145      15.02502543      15.02406408      15.02446839      15.02366559      15.02394413      15.02209250      15.01985659      15.02052371      15.01958677      15.01997375      15.02226216      15.02659194
        15.03132774      15.04045420      15.05518054      15.07394909      15.08910791      15.06832658      15.04777517      15.05111996      15.05875914      15.06261834      15.06237329      15.06201839      15.06024290      15.05349477      15.04428031      15.03929926      15.03862648      15.04086851      15.03971217      15.03457828
        15.02977168      15.02891098      15.03150313      15.03569557      15.03845640      15.04075889      15.04325463      15.05031072      15.07033242      15.09903896      15.07036388      15.03432217      15.02704549      15.02637484      15.02897343      15.03371745      15.03967825      15.05153576      15.05551325      15.05440934
        15.05009547      15.04864620      15.05176242      15.05744674      15.06300511      15.07303661      15.09028905      15.12205586      15.14768203      15.14046848      15.10275829      15.07123589      15.05929309      15.04997550      15.04510095      15.04457028      15.05121689      15.06107951      15.07009490      15.07559384
        15.08206497      15.09110635      15.08303238      15.07960704      15.08566884      15.10351560      15.12830147      15.13636937      15.14611639      15.16851487      15.19327444      15.19992626      15.18539732      15.14752017      15.09021702      15.05723743      15.05275543      15.05132052      15.05575075      15.06296245
        15.02638640      15.02555019      15.02763762      15.03340167      15.03939217      15.03822802      15.03641330      15.03885409      15.03902763      15.03722570      15.03739051      15.03717810      15.03617997      15.03362957      15.02869076      15.02673813      15.02496459      15.02392900      15.02556005      15.02871798
        15.03677096      15.05104744      15.06762003      15.08400782      15.10026012      15.09979855      15.06974265      15.06653367      15.06977297      15.07233311      15.07285422      15.07184134      15.07086528      15.06822163      15.06035256      15.05373132      15.05211566      15.05362395      15.05390284      15.05015940
        15.04410259      15.04167877      15.04360439      15.04612883      15.04905427      15.05222532      15.05649356      15.06898008      15.09396366      15.12620560      15.11497623      15.05716992      15.04030650      15.03558467      15.03723369      15.04148438      15.05193745      15.06482091      15.07121683      15.06855290
        15.06557515      15.06258700      15.06399680      15.06862563      15.07304377      15.08006897      15.09152341      15.11176495      15.13713604      15.14514789      15.12904108      15.10025493      15.08718750      15.07749198      15.07118557      15.07016198      15.07966673      15.09437990      15.10941277      15.12403035
        15.13833849      15.15465251      15.15271309      15.14652724      15.14948235      15.16453881      15.18954900      15.20516079      15.21773654      15.23687686      15.25533306      15.26921648      15.26255509      15.23371064      15.16477684      15.09948351      15.08087366      15.07986058      15.08330510      15.09084355
        15.03771349      15.03894735      15.04149070      15.04857504      15.05604802      15.05729935      15.05323539      15.05310160      15.05424598      15.05343256      15.05277901      15.05190453      15.04905169      15.04416102      15.03653226      15.03003174      15.02633443      15.02341794      15.02341309      15.02319661
        15.02640133      15.04729734      15.07198016      15.08791359      15.09946100      15.10596141      15.08816996      15.07764426      15.07656188      15.07825745      15.07932672      15.07873194      15.07788437      15.07726787      15.07252298      15.06570227      15.06305845      15.06298964      15.06433409      15.06335999
        15.05785863      15.05359917      15.05414254      15.05540459      15.05779729      15.06018103      15.06401399      15.07803144      15.10293066      15.13283840      15.13330889      15.08440551      15.05298719      15.04242437      15.04120182      15.04339591      15.05539977      15.06944297      15.07848096      15.07838818
        15.07590709      15.07365919      15.07358028      15.07656628      15.08027024      15.08550449      15.09378010      15.10685794      15.12655400      15.14190942      15.14084106      15.12736030      15.11468540      15.10696093      15.10113637      15.10198171      15.11399950      15.13434622      15.15724461      15.18138116
        15.20386717      15.22619015      15.24382618      15.24287759      15.24229746      15.24415054      15.25686929      15.26844602      15.27905143      15.29621311      15.31210742      15.32944664      15.33098535      15.31588599      15.25639280      15.16074614      15.11442503      15.11266889      15.11376113      15.11708813
        15.04891678      15.05215617      15.05733327      15.06502551      15.07505139      15.08037231      15.07295303      15.06812396      15.07165566      15.07241409      15.07126917      15.07027309      15.06531191      15.05647351      15.04307951      15.03116024      15.02305393      15.01593570      15.01081224      15.00494282
        14.99646604      15.01155946      15.05261788      15.08207114      15.09549085      15.10205773      15.09785685      15.08638563      15.08280310      15.08276291      15.08405468      15.08401099      15.08348699      15.08314182      15.08111512      15.07592350      15.07195524      15.07088088      15.07250349      15.07311909
        15.06991248      15.06387433      15.06286306      15.06349820      15.06509751      15.06661423      15.06986831      15.07999521      15.10209603      15.12662016      15.13231574      15.09928908      15.06528632      15.04642058      15.04226209      15.04219413      15.04941442      15.06665320      15.07670501      15.08100243
        15.08148984      15.08159713      15.08123252      15.08299817      15.08636838      15.09064453      15.09678402      15.10641306      15.12329488      15.14072325      15.14755342      15.14619351      15.13950213      15.13584391      15.13392196      15.13985350      15.15869229      15.18345370      15.21282693      15.24722992
        15.27657997      15.29811725      15.33578033      15.35194003      15.35697719      15.34697031      15.34072229      15.33779095      15.33657830      15.35026584      15.36684147      15.38402651      15.39738901      15.39016849      15.35242354      15.23969456      15.15370036      15.14619976      15.14420513      15.14441611
        15.06432928      15.06754667      15.07371125      15.08286950      15.09674232      15.10511181      15.09762683      15.08674638      15.08941422      15.09218865      15.09308491      15.09077988      15.08406823      15.07046810      15.04898412      15.02837051      15.01296039      14.99859087      14.98163936      14.96105842
        14.93421290      14.93984248      14.99160064      15.05158173      15.08474484      15.09672547      15.09869627      15.09359974      15.08927792      15.08761842      15.08843256      15.08825965      15.08797816      15.08741312      15.08699221      15.08396225      15.07994280      15.07807407      15.07896935      15.08025853
        15.07871769      15.07260091      15.06919871      15.06986900      15.07074260      15.07201165      15.07440335      15.08054138      15.09658908      15.11494986      15.12233715      15.10208661      15.07069205      15.04835774      15.04083222      15.03857196      15.03949714      15.05428540      15.06570933      15.07272107
        15.08099164      15.08518740      15.08698942      15.08860202      15.09162693      15.09527059      15.09972686      15.10779494      15.12278984      15.14115496      15.15228952      15.15642411      15.15657065      15.15800991      15.16457300      15.18182406      15.20973479      15.23869690      15.27102208      15.31025266
        15.34530605      15.37218501      15.40863505      15.43662723      15.45581145      15.45407228      15.44108077      15.42332914      15.40179080      15.40596873      15.42003419      15.43870464      15.46091836      15.45926965      15.43846552      15.32930043      15.20049868      15.17600612      15.17281244      15.17170917
        15.09901047      15.09325623      15.09714534      15.10653677      15.12092225      15.13091782      15.12709038      15.11202095      15.10702669      15.11167012      15.11480524      15.11177941      15.10354891      15.08321205      15.05171087      15.01894834      14.99043997      14.96376547      14.92355036      14.88214969
        14.83993650      14.84165976      14.89730982      14.98758909      15.06022389      15.09057297      15.09847891      15.09823511      15.09553922      15.09358711      15.09268640      15.09244313      15.09160749      15.09124537      15.09129659      15.09011957      15.08750208      15.08466424      15.08452089      15.08534425
        15.08426591      15.07988477      15.07475541      15.07452971      15.07487633      15.07592891      15.07754470      15.08107127      15.09159399      15.10569699      15.11308368      15.10115363      15.07312652      15.04952863      15.03748148      15.03290120      15.03065287      15.03494721      15.04367775      15.05103320
        15.06943453      15.08440054      15.09062082      15.09324007      15.09607804      15.09911707      15.10250836      15.10929658      15.12365398      15.14284280      15.15600073      15.16155456      15.16511954      15.17007376      15.18477032      15.21598883      15.25498693      15.29359698      15.32731769      15.36447881
        15.40103101      15.43187735      15.45942435      15.49345168      15.51869150      15.52892667      15.52640141      15.50979145      15.47538212      15.45919419      15.47199358      15.49202835      15.51394318      15.52096492      15.50532561      15.42491508      15.27128838      15.20241972      15.19780494      15.19664630
        15.20201382      15.15730163      15.14178228      15.13861285      15.14955010      15.15713166      15.15551344      15.14303683      15.13105117      15.13243666      15.13341073      15.13062254      15.12109476      15.09343808      15.04614746      14.99672084      14.94615293      14.89081377      14.80942705      14.75858200
        14.72836758      14.72735872      14.78473274      14.90168542      15.01933751      15.08064236      15.09781855      15.10095727      15.10024490      15.09915756      15.09759054      15.09697053      15.09540366      15.09480303      15.09476361      15.09482835      15.09380487      15.09120225      15.08911418      15.08843945
        15.08709482      15.08465965      15.08013092      15.07770010      15.07792052      15.07886174      15.07995601      15.08229969      15.08857235      15.09892306      15.10644230      15.10011875      15.07677986      15.05037254      15.03372371      15.02625235      15.02216551      15.01611748      15.01146007      15.01251167
        15.03920292      15.07657454      15.09217646      15.09715905      15.09993490      15.10262229      15.10576355      15.11091832      15.12353606      15.14256142      15.15709237      15.16457800      15.16914834      15.17542237      15.19352219      15.23399254      15.28426235      15.33674992      15.37857768      15.41491552
        15.45005923      15.47710781      15.50362715      15.53499860      15.55545258      15.56835697      15.57346841      15.57000241      15.54193148      15.51215215      15.52048962      15.53767861      15.55686631      15.56968012      15.55625372      15.50278978      15.35485945      15.23563413      15.22205194      15.21937141
        15.50203659      15.34183181      15.22818104      15.19120991      15.18217585      15.18045643      15.17631028      15.16890180      15.15794785      15.15263653      15.15004991      15.14475785      15.13306334      15.09827949      15.03273928      14.95489526      14.86295596      14.74613328      14.61711557      14.55755026
        14.59225746      14.61940415      14.67715204      14.80686992      14.96740080      15.06529241      15.09641533      15.10314369      15.10317623      15.10272559      15.10195687      15.10093408      15.09967989      15.09843649      15.09811200      15.09836264      15.09797633      15.09627249      15.09259053      15.09035559
        15.08852072      15.08704644      15.08437189      15.08107469      15.08060796      15.08125429      15.08215363      15.08381048      15.08780266      15.09495456      15.10172944      15.09978104      15.08276448      15.05417674      15.03031010      15.01905322      15.01188196      14.99845291      14.97123912      14.95291217
        14.97843487      15.05065301      15.09096029      15.10053827      15.10354729      15.10603277      15.10893286      15.11312866      15.12213650      15.13894965      15.15487768      15.16479276      15.17055096      15.17697213      15.19355028      15.23688385      15.29648695      15.35875070      15.42197591      15.46628031
        15.49621184      15.51784669      15.54285360      15.56517459      15.57961542      15.59082644      15.59652568      15.60144688      15.59127437      15.56484318      15.56174377      15.57432863      15.58944687      15.60179864      15.59774672      15.55853522      15.43834395      15.29641584      15.25342248      15.24577249
        16.10054142      15.79414158      15.43513214      15.28222940      15.22192219      15.20030173      15.19022238      15.18381466      15.17800222      15.17067378      15.16550005      15.15641492      15.14203133      15.10634379      15.01497186      14.89087714      14.75100595      14.56916299      14.34440809      14.27923393
        14.29951335      14.03690464      14.06914605      14.39531288      14.52928211      14.59526259      14.71752454      14.90952207      15.04838700      15.09452081      15.10475775      15.10520739      15.10478765      15.10466310      15.10394216      15.10317821      15.10219183      15.10121810      15.10100189      15.10086963
        15.09979628      15.09580074      15.09187192      15.08946150      15.08812840      15.08699245      15.08477401      15.08329435      15.08326947      15.08417663      15.08539438      15.08800349      15.09290153      15.09816903      15.09953451      15.08865985      15.06164979      15.02901255      15.01080676      15.00012308
        14.97875824      14.92216447      14.89020933      14.87674603      14.83400930      14.81036376      14.88991565      15.00276309      15.08234448      15.10299460      15.10719695      15.10895751      15.11154177      15.11523554      15.12102415      15.13363117      15.14916277      15.16158563      15.16922342      15.17608915
        15.19058109      15.23136163      15.29459343      15.36703629      15.45620929      15.51350886      15.53791375      15.55678461      15.57313312      15.58766500      15.59861730      15.60641490      15.61125070      15.61655158      15.61826474      15.60506155      15.59568051      15.60328706      15.61184085      15.62082434
        15.62354502      15.60301344      15.51849588      15.38211156      15.30241653      15.28656335      16.74623030      16.44502145      15.86454455      15.44805794      15.28368299      15.21964939      15.20027799      15.19254928      15.18872289      15.18389891      15.17829781      15.16888970      15.15152163      15.12159767
        15.01586246      14.83199905      14.64946692      14.45629379      14.25347842      14.05687015      14.27801425      14.13048129      13.78919221      13.61137054      13.69412376      13.42566915      13.25695205      13.29145052      12.98972665      12.79199341      12.80813331      12.06227515      13.64943019      13.83674541
        13.34032026      13.52095217      13.01390793      13.21105604      12.82114278      13.16098499      13.45248982      13.76583162      13.79024312      13.41226392      13.05031044      12.83944766      13.26210596      13.19778696      13.62241256      13.52609750      14.00962046      13.91403673      13.04746001      13.25635153
        13.27288152      13.37800639      13.53019151      13.56591278      13.68342184      13.84262088      13.93001953      14.03067938      14.12110387      14.33752538      14.16396261      14.34410304      14.48205918      14.55060069      14.64778491      14.84434467      15.02520269      15.09238303      15.10550017      15.10694767
        15.10636629      15.10618887      15.10598351      15.10542332      15.10509125      15.10428350      15.10349468      15.10307039      15.10212614      15.09872081      15.09385857      15.09054339      15.08875681      15.08810787      15.08717022      15.08588501      15.08531199      15.08594878      15.08682171      15.08865789
        15.09202991      15.09597708      15.09938827      15.09438963      15.07228967      15.03350878      15.00442010      14.99029710      14.96498009      14.91439317      14.85889256      14.91584230      14.86480338      14.78402741      14.72039023      14.74974224      14.65996417      14.60350355      14.61621354      14.52386194
        14.46354110      14.46953921      14.25267800      14.70987262      14.73912841      14.61578931      14.65736123      14.52074964      14.57227331      14.46313787      14.55505976      14.63174223      14.70551388      14.76320534      14.64279469      14.53437248      14.46998264      14.59135284      14.56878920      14.69552601
        14.65924929      14.80765027      14.76118465      14.52409847      14.57859794      14.58470314      14.61062922      14.64756706      14.66059405      14.68624586      14.71903494      14.74981914      14.76925080      14.80094142      14.86249392      14.81077095      14.86676570      14.96648563      15.06659932      15.10444325
        15.11021611      15.11122678      15.11309560      15.11624419      15.12000706      15.12792740      15.14037457      15.15461427      15.16552016      15.17287796      15.18609064      15.22009210      15.28655882      15.37768134      15.47848483      15.54754687      15.57313803      15.58853277      15.59758278      15.60679927
        15.61368162      15.61746178      15.62209019      15.62604704      15.63043504      15.62839926      15.62047088      15.62456202      15.62822341      15.63234411      15.63556580      15.63222618      15.58959172      15.48920825      15.39359252      15.35571128      17.19556047      17.01118491      16.47732369      15.78275166
        15.40166601      15.24666506      15.20786908      15.19833444      15.19348682      15.19054740      15.18641688      15.17959273      15.16458000      15.13648591      15.04870676      14.83356972      14.60197961      14.44478032      14.33033701      14.20536456      14.20509329      14.32559447      14.32859732      14.37014139
        14.49468331      14.54975859      14.61368650      14.78915107      14.99434415      15.08526147      15.10486741      15.10813787      15.10761771      15.10720947      15.10721391      15.10696964      15.10682955      15.10676912      15.10591917      15.10487889      15.10374081      15.10115869      15.09662705      15.09209957
        15.08924906      15.08862704      15.08814792      15.08751676      15.08704029      15.08721886      15.08785328      15.08904238      15.09147093      15.09461232      15.09850056      15.09902536      15.08469929      15.04701357      15.00431714      14.98547551      14.96589046      14.92209896      14.85299694      14.83504546
        14.89649172      14.88702839      14.89761312      14.97771744      15.05998051      15.10311596      15.11116352      15.11204510      15.11307100      15.11521347      15.11793970      15.12240627      15.13122223      15.14386826      15.15822959      15.16792767      15.18149753      15.20821241      15.26963888      15.38026909
        15.48682845      15.56357654      15.59720478      15.60987702      15.61904526      15.62402840      15.62713770      15.62734740      15.63067540      15.63379250      15.63805078      15.64132481      15.63754048      15.63811975      15.63916282      15.64136887      15.64380780      15.64608752      15.63884903      15.59322308
        15.52426412      15.47295268      17.49092224      17.36725222      17.02494831      16.30440347      15.61609479      15.29786394      15.21748101      15.20164789      15.19539934      15.19216005      15.18910626      15.18418498      15.17349365      15.14966620      15.08977321      14.90184536      14.63246530      14.48048505
        14.42746063      14.43024215      14.47183353      14.52423226      14.56802171      14.61699015      14.73654715      14.93708307      15.06706881      15.10172500      15.10844564      15.10845355      15.10793458      15.10790597      15.10790339      15.10791802      15.10822847      15.10813846      15.10688945      15.10522263
        15.10299085      15.09917446      15.09388085      15.08989028      15.08889578      15.08849266      15.08812625      15.08787587      15.08790787      15.08831207      15.08905203      15.09075021      15.09319793      15.09685376      15.10184613      15.09463823      15.06615273      15.01728397      14.98861482      14.97509773
        14.95652327      14.94318582      14.96010105      15.00090469      15.05644806      15.09749362      15.10925113      15.11078412      15.11134167      15.11183903      15.11377329      15.11606082      15.12303333      15.13261358      15.14772620      15.16121546      15.17531552      15.19931694      15.24946626      15.36259975
        15.48636506      15.56099825      15.60435306      15.62183769      15.63185833      15.63870251      15.64086191      15.63805460      15.63874069      15.64184770      15.64580093      15.65045387      15.64970974      15.64710228      15.64684646      15.64791529      15.65045851      15.65340668      15.66224897      15.66467814
        15.63714766      15.60952554      17.73067663      17.62153551      17.38847887      16.83560425      15.94842608      15.37821571      15.23767766      15.20440603      15.19519990      15.19089209      15.18787509      15.18327728      15.17335080      15.15295621      15.11001841      14.98550585      14.72936782      14.53776388
        14.48561791      14.49317231      14.52107026      14.55599258      14.59606854      14.63368936      14.70552462      14.86576436      15.02851072      15.09402565      15.10723216      15.10893371      15.10840619      15.10829567      15.10836689      15.10848669      15.10878288      15.10933638      15.10864769      15.10664298
        15.10445253      15.10129214      15.09602698      15.09095658      15.08900085      15.08853986      15.08818648      15.08797947      15.08801399      15.08833644      15.08882414      15.09000011      15.09180786      15.09468031      15.10246306      15.10316486      15.08610644      15.04327600      15.00043481      14.98869582
        14.98022653      14.97844195      14.99035428      15.01255409      15.05032550      15.08814972      15.10468782      15.10719782      15.10730934      15.10620131      15.10681964      15.10861763      15.11476445      15.12260858      15.13678975      15.15319730      15.16938711      15.19459091      15.23268875      15.31763555
        15.46479140      15.55230139      15.59413752      15.62316781      15.63680525      15.64839473      15.65377200      15.65094725      15.64853830      15.65081249      15.65455422      15.65935022      15.65992028      15.65558208      15.65374893      15.65297592      15.65582103      15.65903623      15.66880822      15.69557748
        15.70301768      15.70119607      17.91571379      17.82960463      17.63853326      17.24556899      16.36430174      15.50399133      15.25832740      15.20811019      15.19324947      15.18730483      15.18314877      15.17753205      15.16516202      15.14580892      15.11214657      15.04503108      14.85224214      14.61847949
        14.53848664      14.53863806      14.55747485      14.58929175      14.62049232      14.65304833      14.70162239      14.80423516      14.95977695      15.07162535      15.10501297      15.10937312      15.10890200      15.10857526      15.10858031      15.10866189      15.10883324      15.10938125      15.10972860      15.10790404
        15.10553581      15.10277593      15.09818125      15.09234787      15.08903776      15.08836909      15.08797125      15.08769353      15.08770008      15.08802659      15.08840551      15.08918071      15.09065014      15.09269547      15.10043203      15.10931366      15.09912050      15.06829350      15.02174875      15.00263914
        14.99844577      14.99761385      15.00411697      15.01525305      15.03800133      15.07182109      15.09565002      15.10147308      15.10113561      15.09928482      15.09817031      15.09932956      15.10449152      15.11304049      15.12671859      15.14593793      15.16513155      15.19230092      15.22510282      15.28136898
        15.42027734      15.53426055      15.57516694      15.61216334      15.63520206      15.65190952      15.66366586      15.66678336      15.66211970      15.66139560      15.66455030      15.66894490      15.67004265      15.66473582      15.66123758      15.65876830      15.66013275      15.66490782      15.67374898      15.69927518
        15.73006118      15.73963168      18.01542735      17.98400875      17.86582776      17.57373424      16.79151973      15.72927063      15.28392555      15.20991796      15.18954638      15.18095509      15.17534441      15.16682702      15.15078440      15.12656425      15.09613588      15.05601207      14.93925296      14.71439174
        14.59817724      14.58131525      14.59213475      14.61904746      14.64470482      14.67272585      14.70683773      14.77171454      14.88652367      15.02284903      15.09622077      15.11003626      15.10958045      15.10877422      15.10864229      15.10859757      15.10858674      15.10881600      15.10985205      15.10928171