# File generated by Flopy version 3.7.0 on 06/18/2024 at 16:24:29.
BEGIN options
  TIME_UNITS  seconds
END options

BEGIN dimensions
  NPER  1
END dimensions

BEGIN perioddata
   21600.00000000  1       1.00000000
END perioddata

