# File generated by Flopy version 3.6.0 on 02/14/2025 at 13:25:18.
BEGIN options
  PRINT_OPTION  summary
  COMPLEXITY  complex
END options

BEGIN linear
  LINEAR_ACCELERATION  bicgstab
END linear

