# File generated by Flopy version 3.6.0 on 04/08/2024 at 13:08:56.
BEGIN options
  PRINT_OPTION  summary
  COMPLEXITY  complex
END options

BEGIN linear
  LINEAR_ACCELERATION  bicgstab
END linear

