# File generated by Flopy version 3.6.0 on 09/16/2024 at 10:50:55.
BEGIN options
  PRINT_OPTION  summary
  COMPLEXITY  complex
END options

BEGIN linear
  LINEAR_ACCELERATION  bicgstab
END linear

