# File generated by Flopy version 3.7.0 on 06/18/2024 at 16:25:24.
BEGIN options
END options

BEGIN griddata
  strt
    INTERNAL  FACTOR  1.0
        15.00000000      15.00000000      15.00000000      15.00000000      15.00000000      15.00000000      15.00000000      15.00000000      15.00000000      15.00000000      15.00000000      15.00000000      15.00000000      15.00000000      15.00000000      15.00000000      15.00000000      15.00000000      15.00000000      15.00000000
        15.00000000      15.00000000      15.00000000      15.00000000      15.00000000      15.00000000      15.00000000      15.00000000      15.00000000      15.00000000      15.00000000      15.00000000      15.00000000      15.00000000      15.00000000      15.00000000      15.00000000      15.00000000      15.00000000      15.00000000
        15.00000000      15.00000000      15.00000000      15.00000000      15.00000000      15.00000000      15.00000000      15.00000000      15.00000000      15.00000000      15.00000000      15.00000000      15.00000000      15.00000000      15.00000000      15.00000000      15.00000000      15.00000000      15.00000000      15.00000000
        15.00000000      15.00000000      15.00000000      15.00000000      15.00000000      15.00000000      15.00000000      15.00000000      15.00000000      15.00000000      15.00000000      15.00000000      15.00000000      15.00000000      15.00000000      15.00000000      15.00000000      15.00000000      15.00000000      15.00000000
        15.00000000      15.00000000      15.00000000      15.00000000      15.00000000      15.00000000      15.00000000      15.00000000      15.00000000      15.00000000      15.00000000      15.00000000      15.00000000      15.00000000      15.00000000      15.00000000      15.00000000      15.00000000      15.00000000      15.00000000
        15.07846185      15.08195607      15.08546577      15.08797754      15.09020634      15.09310604      15.09465088      15.09406471      15.09024566      15.08610561      15.08321722      15.07970480      15.07481577      15.06942387      15.06475435      15.05986962      15.05485924      15.05004909      15.04570439      15.04256135
        15.04073873      15.03978400      15.03936758      15.03937422      15.04001228      15.04087824      15.04149023      15.04247211      15.04316098      15.04233298      15.04012497      15.03754739      15.03476322      15.03222190      15.03006047      15.02829970      15.02709173      15.02621989      15.02561213      15.02542634
        15.02593455      15.02707272      15.02869926      15.03025666      15.03201535      15.03452458      15.03696391      15.03897016      15.04073160      15.04215934      15.04270564      15.04275996      15.04157960      15.04013786      15.03882170      15.03764003      15.03672867      15.03633833      15.03677164      15.03763654
        15.03804429      15.03782751      15.03751056      15.03735141      15.03715952      15.03689398      15.03638589      15.03592149      15.03632800      15.03782664      15.04062182      15.04419098      15.04882361      15.05544566      15.06221985      15.06857521      15.07372373      15.07690000      15.07858847      15.07905322
        15.07861532      15.07623299      15.07169629      15.06664984      15.06120987      15.05552568      15.05013238      15.04574332      15.04202768      15.03853529      15.03548463      15.03204665      15.02891099      15.02632222      15.02444764      15.02305994      15.02196325      15.02083045      15.01970452      15.01914858
        15.15180284      15.15520361      15.15941543      15.16330088      15.16695926      15.17059077      15.17239481      15.17135680      15.16733208      15.16227601      15.15668008      15.14901452      15.13868997      15.12756905      15.11685023      15.10629814      15.09646204      15.08747339      15.07912272      15.07348426
        15.07080037      15.07011678      15.07108862      15.07285407      15.07533011      15.07797347      15.08032956      15.08213583      15.08226677      15.08003734      15.07634913      15.07199937      15.06738514      15.06278478      15.05895908      15.05613567      15.05412907      15.05244497      15.05142647      15.05153902
        15.05305138      15.05521088      15.05793491      15.06048034      15.06276982      15.06571388      15.06885915      15.07174101      15.07430833      15.07641867      15.07761116      15.07770584      15.07657805      15.07496876      15.07294159      15.07108076      15.07012479      15.07009754      15.07109994      15.07259036
        15.07349702      15.07337850      15.07304005      15.07295142      15.07287957      15.07254741      15.07253067      15.07312438      15.07498291      15.07858917      15.08439358      15.09182255      15.10050355      15.11026870      15.11927605      15.12761919      15.13435800      15.13963488      15.14286769      15.14417052
        15.14297049      15.13842894      15.13083899      15.12202235      15.11283153      15.10354977      15.09480632      15.08735587      15.08097700      15.07502326      15.06926803      15.06351254      15.05825725      15.05391796      15.05080870      15.04806469      15.04546424      15.04305540      15.04111953      15.03989943
        15.21363345      15.21612053      15.21988031      15.22472590      15.22877533      15.23089763      15.23174105      15.23112481      15.22851580      15.22372155      15.21642095      15.20533700      15.19080106      15.17434547      15.15752711      15.14058012      15.12482035      15.11030152      15.09744562      15.08945010
        15.08669533      15.08784007      15.09194369      15.09743646      15.10337647      15.10911946      15.11421005      15.11722158      15.11697593      15.11420526      15.11023237      15.10559684      15.10057174      15.09473089      15.08940887      15.08518464      15.08234913      15.08049941      15.07937890      15.07936328
        15.08099168      15.08311384      15.08548524      15.08770528      15.08993342      15.09258141      15.09549333      15.09844800      15.10102738      15.10330826      15.10500841      15.10553618      15.10510174      15.10396003      15.10250072      15.10128209      15.10093370      15.10144160      15.10283049      15.10432589
        15.10537506      15.10585933      15.10603309      15.10627222      15.10648699      15.10676892      15.10794718      15.11026778      15.11405214      15.12012663      15.12836881      15.13849060      15.14937596      15.16024709      15.17049045      15.17958562      15.18677674      15.19235859      15.19562211      15.19621806
        15.19374825      15.18809037      15.17954410      15.16902693      15.15819160      15.14765796      15.13771991      15.12825618      15.11942167      15.11120992      15.10353272      15.09623858      15.08926430      15.08320296      15.07863703      15.07423421      15.06990599      15.06627734      15.06360410      15.06196274
        15.26266023      15.26483980      15.26822515      15.27272383      15.27596351      15.27728222      15.27790354      15.27741275      15.27535387      15.27054892      15.26186016      15.24873884      15.23151914      15.21034060      15.18688638      15.16242743      15.13860194      15.11632872      15.09797896      15.08767291
        15.08594006      15.09084100      15.10008831      15.11141644      15.12289254      15.13342641      15.14221740      15.14716398      15.14830639      15.14709954      15.14412986      15.13996588      15.13458900      15.12806106      15.12183379      15.11656976      15.11273270      15.11024853      15.10847093      15.10794347
        15.10856375      15.10967505      15.11107376      15.11258685      15.11461127      15.11685206      15.11897742      15.12111720      15.12342091      15.12575295      15.12763234      15.12883482      15.12942484      15.12949648      15.12926791      15.12914112      15.12943435      15.12996555      15.13087887      15.13210249
        15.13335057      15.13490134      15.13646972      15.13810498      15.13974790      15.14126128      15.14352171      15.14701640      15.15262787      15.16061775      15.17006527      15.18083908      15.19222055      15.20436679      15.21557161      15.22458355      15.23141368      15.23590974      15.23815561      15.23786903
        15.23480804      15.22956737      15.22199645      15.21255155      15.20242687      15.19168187      15.18102436      15.17051707      15.15989959      15.14942619      15.13987297      15.13084155      15.12221238      15.11449126      15.10770867      15.10119451      15.09535444      15.09067727      15.08726135      15.08556458
        15.30098773      15.30322388      15.30695014      15.31054844      15.31255204      15.31338937      15.31360372      15.31271238      15.31004008      15.30452875      15.29496427      15.28064426      15.26084809      15.23518158      15.20408231      15.16969070      15.13549654      15.10362782      15.07835392      15.06538809
        15.06613481      15.07734478      15.09427081      15.11365720      15.13286356      15.15010339      15.16372685      15.17216198      15.17647310      15.17793559      15.17680364      15.17334298      15.16770892      15.16127309      15.15498680      15.14913703      15.14449184      15.14108117      15.13828201      15.13647024
        15.13549418      15.13512459      15.13532492      15.13611607      15.13750098      15.13903259      15.14030340      15.14163011      15.14355537      15.14582299      15.14776745      15.14956191      15.15104590      15.15240777      15.15329929      15.15396824      15.15434593      15.15439284      15.15467272      15.15589538
        15.15801986      15.16116795      15.16471788      15.16817193      15.17135252      15.17448055      15.17798322      15.18275718      15.18945222      15.19796511      15.20802840      15.21922834      15.23111594      15.24342284      15.25395107      15.26145851      15.26678202      15.27021847      15.27170138      15.27118170
        15.26875740      15.26487660      15.25920172      15.25251446      15.24474615      15.23505642      15.22423878      15.21318158      15.20171426      15.18980502      15.17833393      15.16768600      15.15709237      15.14751707      15.13834365      15.13004507      15.12315946      15.11766676      15.11363333      15.11149135
        15.33281218      15.33480518      15.33778161      15.34002599      15.34108331      15.34128701      15.34065009      15.33879559      15.33514547      15.32876071      15.31851336      15.30296133      15.28043068      15.24953448      15.20948482      15.16335290      15.11669091      15.07302697      15.03850710      15.02248362
        15.02715558      15.04756151      15.07567876      15.10571684      15.13425987      15.15924847      15.17903677      15.19238685      15.20037589      15.20457475      15.20550616      15.20384607      15.19985891      15.19454872      15.18857504      15.18233062      15.17682534      15.17269481      15.16881233      15.16525991
        15.16241407      15.16022154      15.15892638      15.15842440      15.15873884      15.15957747      15.16051272      15.16156853      15.16290570      15.16462972      15.16638874      15.16847534      15.17064042      15.17285505      15.17459011      15.17556287      15.17552069      15.17497537      15.17510480      15.17667047
        15.18012570      15.18521950      15.19063808      15.19578851      15.20075419      15.20549867      15.21013494      15.21622089      15.22369554      15.23288414      15.24373433      15.25539145      15.26681025      15.27716492      15.28544198      15.29090520      15.29456935      15.29683138      15.29785723      15.29761395
        15.29646948      15.29460361      15.29173696      15.28819637      15.28323438      15.27579223      15.26615126      15.25542055      15.24377194      15.23094209      15.21767173      15.20553690      15.19367336      15.18217212      15.17110188      15.16187667      15.15430863      15.14792543      15.14330098      15.14078395
        15.36039171      15.36167482      15.36294520      15.36379694      15.36412864      15.36385949      15.36232133      15.35943727      15.35463430      15.34723128      15.33579293      15.31804012      15.29171973      15.25466005      15.20507787      15.14659787      15.08614437      15.02701052      14.97988883      14.96044403
        14.97081201      15.00340561      15.04623816      15.08996541      15.12965950      15.16278023      15.18877207      15.20704890      15.21882302      15.22621040      15.22998642      15.23114291      15.23005047      15.22678526      15.22220064      15.21656005      15.21052935      15.20479984      15.19925884      15.19423675
        15.18977850      15.18574158      15.18266485      15.18049410      15.17929310      15.17909412      15.17967002      15.18071315      15.18181504      15.18297570      15.18442478      15.18659894      15.18892962      15.19124685      15.19305941      15.19377251      15.19310438      15.19174753      15.19112658      15.19286812
        15.19784272      15.20503800      15.21262406      15.22015221      15.22731788      15.23342689      15.23962875      15.24697503      15.25534248      15.26511895      15.27597775      15.28671106      15.29606275      15.30420412      15.31032309      15.31449369      15.31731742      15.31915373      15.31999508      15.32050849
        15.32111094      15.32158240      15.32184975      15.32097515      15.31832069      15.31338508      15.30590694      15.29637866      15.28458868      15.27112578      15.25691313      15.24357649      15.23115286      15.21878220      15.20711371      15.19714951      15.18885647      15.18220456      15.17745087      15.17497939
        15.38513916      15.38569593      15.38599918      15.38602214      15.38559291      15.38421392      15.38147442      15.37719353      15.37085391      15.36196993      15.34896377      15.32854609      15.29772303      15.25374779      15.19560851      15.12585927      15.04917394      14.96928803      14.90348195      14.87663234
        14.89692554      14.94838857      15.01020564      15.07027317      15.12177600      15.16280122      15.19442720      15.21689371      15.23207342      15.24262969      15.24972279      15.25386718      15.25574397      15.25534038      15.25321173      15.24892389      15.24279812      15.23549296      15.22828365      15.22229247
        15.21692098      15.21167415      15.20705724      15.20335248      15.20075315      15.19951531      15.19936530      15.19993063      15.20059107      15.20127010      15.20240016      15.20416518      15.20592605      15.20767994      15.20892000      15.20886717      15.20705297      15.20379960      15.20114682      15.20262211
        15.20979954      15.22015855      15.23078447      15.24090787      15.24992956      15.25772869      15.26554128      15.27360359      15.28229056      15.29194685      15.30186025      15.31103270      15.31880700      15.32544921      15.33028564      15.33385714      15.33669202      15.33877073      15.34044214      15.34266783
        15.34529669      15.34811154      15.35048275      15.35111065      15.34993816      15.34693395      15.34156263      15.33343195      15.32201713      15.30848262      15.29447587      15.28097110      15.26851327      15.25677307      15.24574279      15.23572952      15.22736612      15.22116200      15.21676052      15.21442436
        15.40871950      15.40867318      15.40829431      15.40759522      15.40606600      15.40333167      15.39928819      15.39328641      15.38505591      15.37423641      15.35930608      15.33619383      15.30135364      15.25187813      15.18599813      15.10519305      15.01070235      14.90204362      14.79877590      14.75225211
        14.79461553      14.88222641      14.97230389      15.05075995      15.11369619      15.16173488      15.19730993      15.22251958      15.24022121      15.25328315      15.26306871      15.27021368      15.27498754      15.27748946      15.27794851      15.27570611      15.27082682      15.26415272      15.25668727      15.25009356
        15.24399227      15.23798435      15.23238938      15.22749645      15.22417071      15.22235943      15.22131641      15.22091808      15.22065396      15.22085239      15.22143955      15.22234488      15.22321841      15.22410705      15.22447614      15.22300180      15.21864381      15.21163647      15.20446635      15.20458672
        15.21561363      15.23124493      15.24566456      15.25829929      15.26918906      15.27853845      15.28706042      15.29553933      15.30445334      15.31377011      15.32278002      15.33094225      15.33782285      15.34333296      15.34761792      15.35102141      15.35411333      15.35691582      15.36024502      15.36432184
        15.36893184      15.37348587      15.37705458      15.37892279      15.37905828      15.37728978      15.37310332      15.36584750      15.35546180      15.34282423      15.32974328      15.31693903      15.30549608      15.29558498      15.28618597      15.27803139      15.27128399      15.26593386      15.26190076      15.26001103
        15.43324012      15.43216954      15.43054261      15.42843859      15.42536176      15.42129011      15.41575925      15.40813583      15.39795544      15.38500848      15.36798279      15.34260369      15.30473857      15.25113016      15.17981009      15.09091189      14.97930450      14.83284109      14.65600654      14.60756630
        14.60906226      14.50698839      14.51091560      14.65822442      14.81647560      14.94221092      15.03729603      15.10795350      15.15971781      15.19753093      15.22460949      15.24415674      15.25913582      15.27089047      15.28024805      15.28738694      15.29264209      15.29605658      15.29678196      15.29496860
        15.29128508      15.28583062      15.27934694      15.27258753      15.26528541      15.25877058      15.25349310      15.24985180      15.24766869      15.24587396      15.24430290      15.24331669      15.24315247      15.24345625      15.24367977      15.24353990      15.24320608      15.24172298      15.23783541      15.22999431
        15.21745500      15.20171751      15.19864907      15.20222492      15.19440841      15.19890567      15.21606671      15.23955380      15.25832573      15.27355323      15.28603407      15.29602140      15.30491389      15.31409094      15.32346191      15.33273711      15.34138475      15.34883802      15.35482038      15.35962946
        15.36366369      15.36715737      15.37064898      15.37466854      15.37961495      15.38535835      15.39152080      15.39723020      15.40199715      15.40507463      15.40618804      15.40505806      15.40127087      15.39476147      15.38607020      15.37546458      15.36375437      15.35268188      15.34320816      15.33542153
        15.32846962      15.32323166      15.31877782      15.31484566      15.31161271      15.30979549      15.45914525      15.45670983      15.45343236      15.44930696      15.44413052      15.43819075      15.43096615      15.42173015      15.40969460      15.39474177      15.37561963      15.34813304      15.30874041      15.25416434
        15.18213612      15.09087047      14.97162927      14.80680585      14.63084239      14.51924926      14.64204239      14.53506287      14.43181311      14.39662957      14.40166436      14.36317266      14.35027744      14.35303876      14.33900332      14.33550401      14.33695634      14.33135050      14.40276872      14.44370110
        14.35587144      14.37454893      14.33993674      14.34789205      14.33682145      14.34684670      14.36661310      14.41785563      14.41527117      14.36258594      14.34341430      14.33861748      14.35291466      14.35055041      14.38462862      14.37423408      14.46363386      14.43414544      14.34261722      14.35218453
        14.35386161      14.36039313      14.37523833      14.37890008      14.39501554      14.43135080      14.44014941      14.47617763      14.53413342      14.64064964      14.55293325      14.65443222      14.80122493      14.94040449      15.03713341      15.10734897      15.15867178      15.19630486      15.22406381      15.24496522
        15.26145860      15.27453538      15.28535547      15.29461425      15.30253166      15.30906821      15.31342115      15.31533474      15.31535497      15.31301580      15.30819831      15.30175688      15.29428078      15.28724764      15.28202398      15.27819457      15.27522137      15.27279578      15.27058674      15.26941496
        15.26904024      15.26879116      15.26823289      15.26684911      15.26510150      15.26165115      15.25547782      15.24505456      15.22854248      15.20866558      15.19923981      15.21575032      15.20748257      15.19311372      15.19210462      15.19391046      15.19219959      15.19223819      15.19304654      15.19270700
        15.19294401      15.19332881      15.19359238      15.19509587      15.20085983      15.19394168      15.19636320      15.19389780      15.19495622      15.19451820      15.19567437      15.19742428      15.20223301      15.19882344      15.19571832      15.19477217      15.19494914      15.19616416      15.19652462      15.19880949
        15.19910765      15.20588301      15.20557542      15.19579445      15.19705158      15.19741135      15.19832412      15.20002832      15.20073364      15.20287539      15.20709669      15.20845613      15.21331275      15.21369646      15.22691583      15.22177998      15.23367431      15.25103221      15.27224780      15.28863649
        15.30145218      15.31175450      15.32133179      15.33116413      15.34075370      15.34981155      15.35802826      15.36482032      15.37020341      15.37492779      15.37894402      15.38274389      15.38706969      15.39227676      15.39845638      15.40560868      15.41290185      15.41973068      15.42533457      15.42909715
        15.43090170      15.43019662      15.42702873      15.42187374      15.41532091      15.40744646      15.39844448      15.38969485      15.38203417      15.37632886      15.37199609      15.36860486      15.36551279      15.36279425      15.36050006      15.35908026      15.48398660      15.48070441      15.47591545      15.46980399
        15.46247247      15.45427481      15.44485504      15.43366921      15.41986297      15.40326899      15.38242859      15.35334360      15.31365629      15.26096433      15.19244299      15.10754638      15.00182203      14.86457680      14.70218762      14.56065857      14.56724063      14.67252580      14.67619072      14.71324612
        14.85911020      14.97041774      15.05180887      15.11308110      15.15955947      15.19481832      15.22228101      15.24381369      15.26099053      15.27480645      15.28684099      15.29807722      15.30840496      15.31782555      15.32568182      15.33129357      15.33467355      15.33519299      15.33310265      15.32891121
        15.32301447      15.31692141      15.31182670      15.30769555      15.30417991      15.30117155      15.29911512      15.29772948      15.29647602      15.29484704      15.29303339      15.29030543      15.28730761      15.28275751      15.27603080      15.26612537      15.25207648      15.23570777      15.22184910      15.22627396
        15.24007164      15.24315185      15.24875800      15.27100966      15.28936381      15.30411875      15.31636596      15.32687015      15.33673229      15.34668440      15.35614322      15.36481622      15.37247269      15.37894016      15.38439815      15.38935519      15.39371767      15.39814660      15.40335309      15.40949057
        15.41683920      15.42516567      15.43346049      15.44097895      15.44692060      15.45093884      15.45302944      15.45302802      15.45113705      15.44780325      15.44360102      15.43819778      15.43225165      15.42617880      15.42080828      15.41697653      15.41384957      15.41067004      15.40796651      15.40604754
        15.40479135      15.40462761      15.50437536      15.50095742      15.49534398      15.48783502      15.47878143      15.46867644      15.45702337      15.44368579      15.42808192      15.40995468      15.38791427      15.35793390      15.31859768      15.26906391      15.20760336      15.13496262      15.05032897      14.95375032
        14.86431724      14.82609137      14.86483093      14.94018418      15.01331359      15.07320078      15.12183994      15.16156200      15.19373459      15.21982410      15.24095087      15.25823786      15.27260013      15.28584627      15.29875436      15.31100843      15.32267099      15.33321066      15.34161877      15.34774614
        15.35099256      15.35195284      15.35101952      15.34759421      15.34309114      15.33843284      15.33433829      15.33072691      15.32729005      15.32479746      15.32257014      15.31997097      15.31689981      15.31382062      15.30991664      15.30592586      15.30094725      15.29496553      15.28782631      15.27949267
        15.27196830      15.27123900      15.28027764      15.29382589      15.30703681      15.31923500      15.33037287      15.34046448      15.35025896      15.36006315      15.36925720      15.37753429      15.38508110      15.39185348      15.39770421      15.40306794      15.40802662      15.41310784      15.41926858      15.42670786
        15.43567501      15.44509919      15.45368501      15.46096063      15.46663323      15.47056638      15.47291217      15.47393194      15.47352932      15.47226986      15.47048791      15.46772238      15.46437253      15.46074762      15.45739598      15.45424524      15.45085143      15.44734854      15.44489293      15.44383979
        15.44381986      15.44453485      15.51939589      15.51593935      15.50996610      15.50192217      15.49193474      15.48030461      15.46677157      15.45150263      15.43432237      15.41457299      15.39114874      15.36090387      15.32298619      15.27703821      15.22306072      15.16314341      15.09764638      15.02948471
        14.97310084      14.94909080      14.96403342      15.00469230      15.05073248      15.09278697      15.13042517      15.16359727      15.19223360      15.21632556      15.23636168      15.25359539      15.26865291      15.28297733      15.29715253      15.31068772      15.32378849      15.33609042      15.34621010      15.35434587
        15.36018681      15.36387259      15.36546053      15.36430726      15.36116293      15.35724146      15.35336497      15.34954635      15.34546534      15.34182344      15.33837942      15.33462133      15.33078797      15.32707491      15.32271083      15.31848260      15.31366754      15.30879309      15.30425764      15.30024954
        15.29794082      15.29891541      15.30430510      15.31279729      15.32249070      15.33244082      15.34233893      15.35187338      15.36124478      15.37070743      15.37968586      15.38803426      15.39602801      15.40330813      15.40956821      15.41552224      15.42117687      15.42718974      15.43477387      15.44381962
        15.45398188      15.46361400      15.47178158      15.47846218      15.48367526      15.48766447      15.49062943      15.49277817      15.49402500      15.49466760      15.49489375      15.49456939      15.49366665      15.49204756      15.48970860      15.48670807      15.48327467      15.47992837      15.47773485      15.47740421
        15.47816679      15.47897172      15.53010539      15.52657095      15.52048988      15.51202900      15.50114662      15.48815268      15.47310816      15.45648755      15.43775600      15.41630707      15.39158454      15.36104856      15.32462037      15.28266273      15.23565164      15.18642099      15.13547059      15.08439931
        15.04360160      15.02372838      15.02733843      15.04920510      15.07812904      15.10807628      15.13727276      15.16452132      15.18933604      15.21114841      15.23004053      15.24701718      15.26264503      15.27793704      15.29305768      15.30732690      15.32124643      15.33446837      15.34536345      15.35454792
        15.36182857      15.36692635      15.36987168      15.36996507      15.36759852      15.36429526      15.36056688      15.35659308      15.35231501      15.34810616      15.34398355      15.33975700      15.33579691      15.33201667      15.32792004      15.32442186      15.32082227      15.31757051      15.31501258      15.31345743
        15.31346583      15.31547137      15.31991605      15.32649218      15.33420392      15.34268004      15.35162056      15.36052344      15.36942045      15.37871015      15.38776093      15.39645802      15.40494765      15.41272427      15.41955115      15.42622319      15.43276488      15.44002417      15.44889873      15.45898707
        15.46917468      15.47825448      15.48597295      15.49234416      15.49754233      15.50173874      15.50535185      15.50857023      15.51146932      15.51401473      15.51612775      15.51775428      15.51846433      15.51817393      15.51668950      15.51458499      15.51205190      15.50974005      15.50828316      15.50842562
        15.50938005      15.51014757      15.53773459      15.53387546      15.52736252      15.51817036      15.50616544      15.49188023      15.47563986      15.45799348      15.43817322      15.41532356      15.38914711      15.35850552      15.32380719      15.28470792      15.24292170      15.20144152      15.16020584      15.11985024
        15.08749257      15.06969713      15.06753044      15.07795608      15.09631971      15.11830631      15.14126228      15.16331572      15.18405221      15.20336953      15.22121007      15.23804075      15.25424084      15.27043918      15.28612234      15.30070166      15.31467740      15.32765631      15.33811884      15.34706472