# File generated by Flopy version 3.6.0 on 03/03/2025 at 11:18:51.
BEGIN options
  PRINT_OPTION  summary
  COMPLEXITY  complex
END options

BEGIN linear
  LINEAR_ACCELERATION  bicgstab
END linear

