# File generated by Flopy version 3.7.0 on 06/19/2024 at 15:58:00.
BEGIN options
END options

BEGIN griddata
  strt
    INTERNAL  FACTOR  1.0
        15.00000000      15.00000000      15.00000000      15.00000000      15.00000000      15.00000000      15.00000000      15.00000000      15.00000000      15.00000000      15.00000000      15.00000000      15.00000000      15.00000000      15.00000000      15.00000000      15.00000000      15.00000000      15.00000000      15.00000000
        15.00000000      15.00000000      15.00000000      15.00000000      15.00000000      15.00000000      15.00000000      15.00000000      15.00000000      15.00000000      15.00000000      15.00000000      15.00000000      15.00000000      15.00000000      15.00000000      15.00000000      15.00000000      15.00000000      15.00000000
        15.00000000      15.00000000      15.00000000      15.00000000      15.00000000      15.00000000      15.00000000      15.00000000      15.00000000      15.00000000      15.00000000      15.00000000      15.00000000      15.00000000      15.00000000      15.00000000      15.00000000      15.00000000      15.00000000      15.00000000
        15.00000000      15.00000000      15.00000000      15.00000000      15.00000000      15.00000000      15.00000000      15.00000000      15.00000000      15.00000000      15.00000000      15.00000000      15.00000000      15.00000000      15.00000000      15.00000000      15.00000000      15.00000000      15.00000000      15.00000000
        15.00000000      15.00000000      15.00000000      15.00000000      15.00000000      15.00000000      15.00000000      15.00000000      15.00000000      15.00000000      15.00000000      15.00000000      15.00000000      15.00000000      15.00000000      15.00000000      15.00000000      15.00000000      15.00000000      15.00000000
        15.07622399      15.07967234      15.08319000      15.08575052      15.08816816      15.09126872      15.09297804      15.09254563      15.08884071      15.08481129      15.08195169      15.07844766      15.07353268      15.06812110      15.06341694      15.05859363      15.05363381      15.04880007      15.04469803      15.04179700
        15.04005926      15.03915305      15.03864909      15.03851002      15.03897056      15.03964205      15.04008435      15.04100174      15.04164941      15.04071232      15.03834810      15.03554218      15.03250927      15.02974932      15.02734597      15.02534903      15.02389877      15.02278016      15.02198033      15.02161202
        15.02186594      15.02274113      15.02410285      15.02546490      15.02701401      15.02923407      15.03148807      15.03343955      15.03524468      15.03682456      15.03769579      15.03815129      15.03753635      15.03662647      15.03585106      15.03519507      15.03477776      15.03482854      15.03556977      15.03663110
        15.03709451      15.03674350      15.03617252      15.03565295      15.03507884      15.03446244      15.03361814      15.03282044      15.03283509      15.03382935      15.03601650      15.03892019      15.04280722      15.04845902      15.05434216      15.05985293      15.06430592      15.06701531      15.06839020      15.06866204
        15.06811884      15.06584456      15.06168320      15.05708442      15.05212303      15.04696511      15.04209437      15.03812340      15.03477158      15.03167305      15.02903013      15.02610784      15.02347412      15.02129815      15.01971610      15.01854584      15.01763681      15.01671141      15.01579960      15.01534570
        15.14947640      15.15297344      15.15739883      15.16160800      15.16579600      15.16999113      15.17228747      15.17170014      15.16806388      15.16344151      15.15821215      15.15079648      15.14055599      15.12950309      15.11890260      15.10863293      15.09914327      15.09054831      15.08279636      15.07755679
        15.07494645      15.07408708      15.07463843      15.07578217      15.07760754      15.07962502      15.08144595      15.08292169      15.08268886      15.07987430      15.07549633      15.07036372      15.06494630      15.05960469      15.05503734      15.05151137      15.04886296      15.04657196      15.04503261      15.04464158
        15.04556266      15.04720397      15.04948473      15.05172485      15.05378929      15.05649642      15.05953112      15.06246497      15.06524849      15.06775615      15.06956449      15.07044123      15.07026659      15.06961616      15.06864068      15.06784746      15.06793143      15.06885755      15.07057481      15.07250133
        15.07347322      15.07298432      15.07200163      15.07107210      15.07010517      15.06893236      15.06808984      15.06783047      15.06877369      15.07131716      15.07593044      15.08208297      15.08943769      15.09779000      15.10559162      15.11282341      15.11863034      15.12314409      15.12580379      15.12670504
        15.12534391      15.12097353      15.11388614      15.10572669      15.09722577      15.08866163      15.08060639      15.07372985      15.06786290      15.06247732      15.05740025      15.05239980      15.04787809      15.04413726      15.04144446      15.03908540      15.03689095      15.03488370      15.03328472      15.03227238
        15.21301425      15.21574961      15.21997934      15.22556182      15.23057745      15.23360148      15.23529886      15.23558457      15.23393588      15.23018696      15.22380494      15.21336635      15.19926672      15.18318378      15.16688339      15.15072300      15.13599840      15.12271041      15.11096214      15.10347970
        15.10072467      15.10137815      15.10466860      15.10895616      15.11355623      15.11802806      15.12208356      15.12423331      15.12286789      15.11866523      15.11319390      15.10698701      15.10038240      15.09294608      15.08605055      15.08038991      15.07630539      15.07328955      15.07115040      15.07023573
        15.07097240      15.07239241      15.07427329      15.07619953      15.07823619      15.08076361      15.08372461      15.08690971      15.08994018      15.09289759      15.09549902      15.09713707      15.09800613      15.09825255      15.09838480      15.09889234      15.10033209      15.10248169      15.10508923      15.10723534
        15.10826056      15.10804763      15.10705884      15.10583544      15.10449671      15.10328901      15.10302426      15.10389162      15.10619083      15.11063592      15.11717177      15.12556998      15.13479329      15.14404072      15.15285931      15.16069236      15.16681521      15.17150777      15.17409592      15.17424366
        15.17159579      15.16605415      15.15791437      15.14802045      15.13783809      15.12793016      15.11857035      15.10966830      15.10140671      15.09384348      15.08693503      15.08045649      15.07431602      15.06896504      15.06492121      15.06106288      15.05733621      15.05424712      15.05199003      15.05059994
        15.26489877      15.26750226      15.27166533      15.27734061      15.28193323      15.28452942      15.28649616      15.28748122      15.28708839      15.28405353      15.27688366      15.26503893      15.24905622      15.22902286      15.20691337      15.18430154      15.16264705      15.14260856      15.12591899      15.11638804
        15.11451732      15.11861575      15.12662491      15.13610493      15.14550077      15.15398128      15.16106124      15.16427045      15.16341877      15.15996450      15.15456316      15.14780622      15.13970443      15.13039244      15.12142028      15.11363218      15.10762821      15.10320087      15.09974808      15.09780564
        15.09717241      15.09736010      15.09817683      15.09937436      15.10122143      15.10343108      15.10576478      15.10833802      15.11131782      15.11461025      15.11770936      15.12038226      15.12270367      15.12471706      15.12683363      15.12937048      15.13246603      15.13549330      15.13811565      15.14012249
        15.14114522      15.14159993      15.14141574      15.14084576      15.14013063      15.13935628      15.13942994      15.14077821      15.14428361      15.15010034      15.15740094      15.16612979      15.17562810      15.18594674      15.19554333      15.20318840      15.20886080      15.21242727      15.21395384      15.21316662
        15.20983964      15.20454048      15.19714355      15.18807521      15.17838441      15.16810174      15.15787705      15.14779664      15.13768608      15.12787041      15.11909705      15.11091122      15.10314386      15.09617260      15.09005163      15.08422989      15.07908633      15.07501277      15.07206028      15.07058333
        15.30676326      15.30963531      15.31454393      15.31970334      15.32339259      15.32594663      15.32802246      15.32919471      15.32882119      15.32569909      15.31833556      15.30630776      15.28893080      15.26569485      15.23734206      15.20625320      15.17546345      15.14674386      15.12385208      15.11212163
        15.11264871      15.12259861      15.13778041      15.15493705      15.17166945      15.18628997      15.19732061      15.20316919      15.20480271      15.20327019      15.19871836      15.19135669      15.18144756      15.17077662      15.16030447      15.15050940      15.14246856      15.13607424      15.13069448      15.12674664
        15.12398151      15.12230454      15.12170309      15.12206977      15.12326358      15.12481313      15.12638726      15.12830987      15.13114774      15.13467310      15.13818441      15.14190241      15.14568141      15.14973432      15.15396695      15.15853868      15.16299581      15.16654846      15.16913592      15.17134341
        15.17302111      15.17452643      15.17553819      15.17581891      15.17562989      15.17556595      15.17603276      15.17786669      15.18176306      15.18756312      15.19504583      15.20386224      15.21359775      15.22389986      15.23272444      15.23881948      15.24292835      15.24536574      15.24605349      15.24492816
        15.24207375      15.23792471      15.23217755      15.22557007      15.21797650      15.20855501      15.19801636      15.18722526      15.17610158      15.16472542      15.15397954      15.14413520      15.13440283      15.12558035      15.11714419      15.10956404      15.10335058      15.09844910      15.09487495      15.09296033
        15.34269491      15.34553245      15.34997531      15.35401649      15.35706184      15.35940628      15.36111124      15.36183058      15.36104556      15.35769088      15.35056016      15.33852905      15.31981133      15.29309959      15.25768340      15.21637403      15.17411430      15.13420498      15.10275986      15.08834635
        15.09286597      15.11171522      15.13764432      15.16538211      15.19153192      15.21399171      15.23063224      15.24082576      15.24551582      15.24580933      15.24214301      15.23537020      15.22576224      15.21466498      15.20276508      15.19077987      15.18024310      15.17178784      15.16416434      15.15748894
        15.15203144      15.14792134      15.14544804      15.14431626      15.14435584      15.14519902      15.14647544      15.14824523      15.15071595      15.15400487      15.15771699      15.16226865      15.16745660      15.17329569      15.17964079      15.18604534      15.19165370      15.19613389      15.19981608      15.20274279
        15.20533854      15.20782498      15.20938773      15.20998258      15.21028103      15.21073231      15.21137212      15.21368537      15.21764506      15.22349770      15.23125230      15.24015241      15.24918055      15.25740753      15.26390965      15.26790451      15.27026578      15.27142447      15.27154041      15.27055492
        15.26880324      15.26646560      15.26328925      15.25958860      15.25459505      15.24722994      15.23768653      15.22702971      15.21551750      15.20304215      15.19038341      15.17895092      15.16784963      15.15706540      15.14668999      15.13806278      15.13106530      15.12523528      15.12103702      15.11873070
        15.37499173      15.37723989      15.38002315      15.38283185      15.38552764      15.38789855      15.38915387      15.38939657      15.38810027      15.38448764      15.37711171      15.36399692      15.34300537      15.31202185      15.26897332      15.21657061      15.16123332      15.10639224      15.06263039      15.04484025
        15.05532989      15.08669024      15.12744730      15.16901220      15.20656434      15.23731706      15.26024754      15.27504107      15.28303187      15.28588515      15.28409710      15.27909781      15.27143359      15.26096957      15.24869792      15.23532982      15.22220452      15.21018751      15.19933898      15.18994984
        15.18181808      15.17500071      15.17017579      15.16703127      15.16536144      15.16508077      15.16600087      15.16784635      15.17026944      15.17328998      15.17712719      15.18243594      15.18864108      15.19562680      15.20342931      15.21129260      15.21847221      15.22465220      15.22950409      15.23313020
        15.23621797      15.23892818      15.24070418      15.24193033      15.24293572      15.24354571      15.24477822      15.24743845      15.25153175      15.25733840      15.26458531      15.27221664      15.27896498      15.28484164      15.28907207      15.29168437      15.29308853      15.29368657      15.29347293      15.29308125
        15.29288800      15.29269139      15.29244767      15.29124417      15.28840596      15.28337804      15.27581436      15.26616755      15.25433128      15.24102853      15.22724318      15.21446350      15.20263463      15.19084503      15.17969688      15.17017633      15.16234559      15.15613266      15.15171474      15.14938694
        15.40512260      15.40673040      15.40869856      15.41099942      15.41338824      15.41503187      15.41555997      15.41496573      15.41275427      15.40841028      15.40036226      15.38564872      15.36160808      15.32518506      15.27484843      15.21207763      15.14114701      15.06602302      15.00340687      14.97814211
        14.99918229      15.05025719      15.11090286      15.16947887      15.21912786      15.25783775      15.28658425      15.30540448      15.31653447      15.32228716      15.32348830      15.32054013      15.31489142      15.30617066      15.29479159      15.28076428      15.26534644      15.24940443      15.23482788      15.22296219
        15.21269050      15.20366294      15.19656198      15.19138498      15.18798883      15.18648585      15.18663175      15.18805855      15.19017098      15.19296861      15.19696310      15.20253594      15.20898614      15.21644801      15.22518560      15.23437697      15.24332726      15.25102909      15.25707368      15.26166018
        15.26490162      15.26733350      15.26909397      15.27061388      15.27178717      15.27286551      15.27477100      15.27732971      15.28103860      15.28611435      15.29192381      15.29769701      15.30265979      15.30688146      15.30970673      15.31160047      15.31289902      15.31360961      15.31406963      15.31520055
        15.31685459      15.31883835      15.32056059      15.32075156      15.31927898      15.31603582      15.31041064      15.30198993      15.29035159      15.27676765      15.26294924      15.24979704      15.23774524      15.22636461      15.21561535      15.20586101      15.19780349      15.19187351      15.18768647      15.18543128
        15.43519801      15.43633022      15.43786806      15.43986063      15.44155143      15.44220235      15.44194794      15.44014867      15.43671801      15.43120668      15.42205568      15.40571186      15.37879936      15.33792731      15.28073185      15.20773381      15.11951795      15.01569390      14.91435872      14.86815445
        14.91380242      15.00360392      15.09410289      15.17188151      15.23307219      15.27854802      15.31072764      15.33176587      15.34482707      15.35275332      15.35655685      15.35635091      15.35280515      15.34603605      15.33588686      15.32224944      15.30622736      15.28889718      15.27188111      15.25756127
        15.24510251      15.23416750      15.22522605      15.21819823      15.21364495      15.21131307      15.21042163      15.21083434      15.21205759      15.21461639      15.21849727      15.22380244      15.23018490      15.23794501      15.24757600      15.25778691      15.26746169      15.27594551      15.28317501      15.28868894
        15.29156375      15.29337865      15.29458027      15.29574358      15.29692002      15.29839817      15.30023322      15.30254331      15.30585475      15.31011077      15.31460715      15.31904689      15.32293071      15.32587515      15.32802836      15.32963109      15.33107127      15.33238321      15.33434924      15.33718204
        15.34068387      15.34429204      15.34712583      15.34846557      15.34818797      15.34604831      15.34145323      15.33376025      15.32297598      15.31006228      15.29691880      15.28423554      15.27297308      15.26316762      15.25380191      15.24564103      15.23896306      15.23372592      15.22980251      15.22792372
        15.46823760      15.46834156      15.46875008      15.46957366      15.46996767      15.46973852      15.46856119      15.46581729      15.46122774      15.45429506      15.44374851      15.42612520      15.39725867      15.35325392      15.29137536      15.21072863      15.10581619      14.96324735      14.77741302      14.71649964
        14.72013477      14.57426556      14.58419151      14.78636056      14.95855017      15.08734511      15.18229037      15.25092807      15.29935655      15.33263855      15.35449675      15.36847072      15.37766337      15.38313053      15.38496559      15.38328502      15.37873331      15.37071408      15.35894434      15.34495440
        15.32944205      15.31288336      15.29669748      15.28170461      15.26780294      15.25679914      15.24861812      15.24320281      15.24015654      15.23827463      15.23731318      15.23779070      15.24020291      15.24420938      15.24942545      15.25563992      15.26340733      15.27280182      15.28241032      15.29144568
        15.29967055      15.30689333      15.30664291      15.30831027      15.31510508      15.31679893      15.31443446      15.31559141      15.31644257      15.31751494      15.31874114      15.31996050      15.32160696      15.32417967      15.32754713      15.33142674      15.33526342      15.33872784      15.34153767      15.34363145
        15.34538665      15.34696544      15.34868292      15.35109279      15.35456193      15.35894791      15.36391412      15.36861549      15.37258660      15.37506426      15.37566607      15.37402617      15.36968673      15.36260220      15.35334244      15.34223947      15.33021985      15.31900919      15.30947084      15.30156257
        15.29440753      15.28891026      15.28430823      15.28032922      15.27709526      15.27525082      15.50565126      15.50415794      15.50281862      15.50156254      15.49991410      15.49810876      15.49579614      15.49233835      15.48675192      15.47845962      15.46652893      15.44777003      15.41843488      15.37429881
        15.31228314      15.22991218      15.11791222      14.95572866      14.75737345      14.59698925      14.77903781      14.62857139      14.41878235      14.30444092      14.31326349      14.12577920      14.00123416      14.00613406      13.78304117      13.63465285      13.63722944      13.07373102      14.33077254      14.45272672
        14.06436219      14.19938981      13.80278064      13.95156125      13.64774159      13.90552965      14.13093117      14.37313053      14.35298473      14.07629613      13.80895979      13.65093431      13.96048076      13.91211093      14.21733044      14.14448878      14.48833981      14.40235868      13.80891291      13.96699532
        13.96997595      14.05070267      14.17075240      14.17726922      14.26981311      14.40555559      14.42133804      14.51863173      14.62796898      14.77893172      14.66214565      14.80364013      14.96522656      15.10932486      15.20603904      15.27365347      15.32083811      15.35298185      15.37450205      15.38904858
        15.39906333      15.40527289      15.40803974      15.40790477      15.40572840      15.40077376      15.39234062      15.38144790      15.36893956      15.35470043      15.33880930      15.32225500      15.30637001      15.29328093      15.28418478      15.27789447      15.27346817      15.27057956      15.26873049      15.26904998
        15.27151145      15.27526575      15.28006724      15.28550829      15.29241741      15.30033334      15.30813590      15.31558879      15.32190050      15.32204467      15.32330177      15.32980011      15.33203014      15.32295730      15.32349274      15.32689226      15.32684342      15.32712038      15.32872360      15.32870278
        15.32883062      15.32961055      15.32986399      15.32438034      15.32530958      15.32755778      15.32791355      15.32903887      15.32922833      15.33003805      15.33012852      15.32978393      15.32914297      15.33166070      15.33113483      15.33082267      15.33092876      15.33170771      15.33189744      15.33294791
        15.33332416      15.33546670      15.33632424      15.33110275      15.33132748      15.33209361      15.33220413      15.33215782      15.33371454      15.33393325      15.33376468      15.33702630      15.33730765      15.32829412      15.32960945      15.33633622      15.33654291      15.33422187      15.33551676      15.33672627
        15.33787382      15.33914873      15.34112275      15.34403455      15.34740596      15.35092571      15.35419491      15.35682648      15.35887528      15.36074728      15.36232653      15.36409426      15.36652656      15.37000862      15.37460915      15.38033942      15.38638581      15.39217436      15.39695081      15.40006668
        15.40128718      15.39995598      15.39610540      15.39023845      15.38296412      15.37440764      15.36486327      15.35571138      15.34774880      15.34171900      15.33698612      15.33316555      15.32977705      15.32688240      15.32448902      15.32300308      15.54472503      15.54224765      15.53924247      15.53578856
        15.53187737      15.52797173      15.52406194      15.51950411      15.51282885      15.50357352      15.49073950      15.47130439      15.44263357      15.40130394      15.34370328      15.26856792      15.17072040      15.03839684      14.86915975      14.67448008      14.68644813      14.83887867      14.84485921      14.88864321
        15.04839858      15.16268326      15.24347167      15.30156477      15.34310556      15.37220255      15.39281204      15.40730751      15.41726670      15.42341571      15.42688298      15.42849962      15.42850379      15.42654644      15.42188900      15.41475183      15.40506318      15.39295891      15.37916684      15.36373891
        15.34797550      15.33452212      15.32438179      15.31686954      15.31117157      15.30715250      15.30533489      15.30543427      15.30695958      15.30911325      15.31247045      15.31637121      15.32167687      15.32762924      15.33322571      15.33811625      15.34191058      15.34467453      15.34294163      15.34407150
        15.34958750      15.35036091      15.34874335      15.35053491      15.35204573      15.35342855      15.35481972      15.35661689      15.35903759      15.36213906      15.36539408      15.36848278      15.37110362      15.37330922      15.37529314      15.37728041      15.37909968      15.38137513      15.38457663      15.38889000
        15.39457357      15.40140905      15.40843381      15.41490927      15.42000553      15.42333607      15.42477649      15.42407067      15.42140728      15.41726525      15.41223399      15.40599911      15.39932244      15.39262563      15.38673635      15.38239682      15.37871512      15.37497506      15.37185448      15.36965506
        15.36822173      15.36795532      15.58033450      15.57792727      15.57413598      15.56917631      15.56358675      15.55823457      15.55275134      15.54665105      15.53868010      15.52852223      15.51552187      15.49636726      15.46907775      15.43179838      15.38228314      15.32004703      15.24397440      15.15423607
        15.06823031      15.03124242      15.07521141      15.15423080      15.22815706      15.28644723      15.33129478      15.36538277      15.39084700      15.40962687      15.42291681      15.43196296      15.43792410      15.44217995      15.44538486      15.44731488      15.44773643      15.44595517      15.44200644      15.43519430
        15.42538179      15.41430810      15.40191276      15.38786152      15.37509706      15.36431987      15.35591477      15.34940097      15.34433352      15.34169206      15.34056092      15.34016195      15.34012060      15.34143783      15.34324059      15.34624868      15.34971022      15.35284424      15.35563903      15.35796913
        15.35978283      15.36110987      15.36255248      15.36407150      15.36558024      15.36727638      15.36923551      15.37155758      15.37443178      15.37769611      15.38094736      15.38385566      15.38640587      15.38880474      15.39109037      15.39340008      15.39572095      15.39855370      15.40262254      15.40816636
        15.41543919      15.42333602      15.43059786      15.43678259      15.44157609      15.44477104      15.44638867      15.44664744      15.44542312      15.44331411      15.44064933      15.43697022      15.43274493      15.42831548      15.42425557      15.42042883      15.41633493      15.41213327      15.40913436      15.40771290
        15.40746455      15.40806457      15.61030600      15.60815419      15.60418949      15.59908530      15.59341695      15.58757963      15.58124749      15.57369947      15.56458056      15.55369567      15.54059213      15.52244378      15.49761673      15.46481128      15.42345248      15.37430925      15.31744637      15.25602904
        15.20408378      15.18271644      15.19964479      15.24152211      15.28707278      15.32670194      15.36017511      15.38740823      15.40884249      15.42497749      15.43644502      15.44451741      15.45036522      15.45519651      15.45935677      15.46249913      15.46431984      15.46441433      15.46243029      15.45826671
        15.45141398      15.44313666      15.43323417      15.42126301      15.40927841      15.39847431      15.38942627      15.38186812      15.37520714      15.37040792      15.36711730      15.36451079      15.36266822      15.36222087      15.36214366      15.36306864      15.36417857      15.36537427      15.36688813      15.36845762
        15.36999256      15.37126089      15.37254983      15.37404758      15.37585578      15.37798930      15.38048312      15.38338120      15.38667465      15.39021426      15.39364338      15.39689509      15.40003697      15.40296590      15.40559447      15.40845417      15.41142814      15.41511918      15.42054371      15.42763712
        15.43607175      15.44415415      15.45096301      15.45647488      15.46071259      15.46388204      15.46605761      15.46740655      15.46782106      15.46759493      15.46689866      15.46561738      15.46376535      15.46121940      15.45801286      15.45418489      15.44990943      15.44573233      15.44287172      15.44209935
        15.44260564      15.44328767      15.63560436      15.63366194      15.63016828      15.62581552      15.62064952      15.61477600      15.60784090      15.59942079      15.58941833      15.57780810      15.56440813      15.54716063      15.52462001      15.49635030      15.46236343      15.42397048      15.38150810      15.33695727
        15.30073010      15.28317757      15.28745496      15.30875017      15.33578451      15.36260731      15.38756561      15.40898782      15.42628287      15.43932877      15.44881460      15.45588068      15.46137443      15.46640096      15.47094427      15.47451672      15.47706570      15.47811143      15.47721898      15.47468416
        15.46991807      15.46334840      15.45482146      15.44381915      15.43192700      15.42114720      15.41140779      15.40263242      15.39473640      15.38826900      15.38306306      15.37866963      15.37555780      15.37371290      15.37227035      15.37188873      15.37182393      15.37219537      15.37307112      15.37428055
        15.37567475      15.37709283      15.37869740      15.38062600      15.38286472      15.38554307      15.38862325      15.39201895      15.39570163      15.39975127      15.40374958      15.40769921      15.41157965      15.41513012      15.41833549      15.42186589      15.42570982      15.43064089      15.43729619      15.44536999
        15.45372701      15.46116940      15.46747879      15.47263630      15.47678825      15.48005846      15.48281172      15.48518861      15.48727380      15.48898504      15.49017438      15.49082055      15.49051372      15.48920837      15.48673792      15.48371140      15.48025223      15.47703217      15.47482274      15.47445896
        15.47512697      15.47576781      15.65852911      15.65662406      15.65354395      15.64962425      15.64441288      15.63840103      15.63100543      15.62231922      15.61209280      15.60010983      15.58626444      15.56951342      15.54897973      15.52417837      15.49599713      15.46541959      15.43296386      15.39971304
        15.37233053      15.35695138      15.35506637      15.36336277      15.37842264      15.39626440      15.41404328      15.42972296      15.44260329      15.45259397      15.46012996      15.46598716      15.47092946      15.47568934      15.47992116      15.48320831      15.48561951      15.48654206      15.48545855      15.48303393