# File generated by Flopy version 3.6.0 on 02/14/2025 at 13:25:18.
BEGIN options
  BUDGET  FILEOUT  Reference.cbb
  HEAD  FILEOUT  Reference.hds
END options

BEGIN period  1
  SAVE  head  all
  SAVE  budget  all
  PRINT  head  last
END period  1

