# File generated by Flopy version 3.6.0 on 09/12/2024 at 22:54:06.
BEGIN options
END options

BEGIN dimensions
  MAXBOUND  5
END dimensions

BEGIN period  1
  1 1120 0.00000000E+00
  1 1160 -5.00000000E-03
  1 3120 -2.50000000E-02
  1 3180 0.00000000E+00
  1 4170 0.00000000E+00
END period  1

