# File generated by Flopy version 3.7.0 on 06/10/2024 at 08:50:51.
BEGIN options
END options

BEGIN griddata
  icelltype
    CONSTANT  0
  k
    INTERNAL  FACTOR  1.0
    1.15795147E-04  1.53162738E-04  2.06503811E-04  2.32096907E-04  2.11741751E-04  2.18869886E-04  2.22657416E-04  1.93877414E-04  1.64046846E-04  1.56697419E-04  1.10504029E-04  1.04322298E-04  8.55019974E-05  8.58965671E-05  7.89522313E-05  8.67891871E-05  8.02274952E-05  8.91216386E-05  1.01559515E-04  1.14666791E-04
    1.54142823E-04  1.85730330E-04  2.47093382E-04  2.30193511E-04  2.34368686E-04  2.09675215E-04  1.79790705E-04  1.34495849E-04  1.00448431E-04  1.07093931E-04  1.99740434E-04  3.91316409E-04  5.43896674E-04  5.10830652E-04  5.17990145E-04  4.79507006E-04  3.89560447E-04  3.44948190E-04  3.17594008E-04  1.55199446E-04
    8.41374104E-05  5.80386370E-05  4.02652662E-05  3.79161350E-05  3.29892036E-05  3.66531778E-05  5.49179785E-05  6.55466824E-05  9.83243485E-05  1.53991006E-04  2.17028230E-04  1.94967757E-04  1.54428212E-04  1.40925484E-04  1.98225910E-04  2.43369266E-04  2.40553603E-04  2.15435857E-04  1.94085219E-04  1.53865783E-04
    8.25897692E-05  6.24785222E-05  5.42949981E-05  3.68645126E-05  2.44228966E-05  2.62297381E-05  3.57066122E-05  4.67676976E-05  5.14364901E-05  4.04073967E-05  3.98960454E-05  4.15247006E-05  4.17263650E-05  3.78421934E-05  4.26425023E-05  5.38050836E-05  5.24836000E-05  4.82367239E-05  6.93533112E-05  1.43606599E-04
    3.91443612E-04  8.52126991E-04  8.91097023E-04  4.09860440E-04  1.83991336E-04  1.13236317E-04  9.57080452E-05  1.07286464E-04  1.69425502E-04  2.15978968E-04  1.97428755E-04  1.91121138E-04  1.12615385E-04  9.31027492E-05  1.04569983E-04  9.54468522E-05  7.16175587E-05  6.23397458E-05  7.76947185E-05  1.37481201E-04
    1.94690332E-04  3.03148021E-04  2.89768619E-04  3.54751763E-04  4.46070271E-04  3.33408604E-04  2.92690152E-04  3.17034565E-04  2.26183214E-04  1.80217794E-04  1.30128382E-04  1.38147842E-04  1.44698456E-04  1.20644876E-04  1.05117203E-04  6.71162284E-05  4.00497348E-05  2.93283472E-05  3.65056012E-05  3.79070836E-05
    5.30842565E-05  8.43192824E-05  8.58214398E-05  9.57137048E-05  9.93302593E-05  8.39378720E-05  7.68380144E-05  5.64175735E-05  6.06394820E-05  8.57076806E-05  1.10490312E-04  1.27689168E-04  1.18562457E-04  1.10146596E-04  1.08726734E-04  1.38087072E-04  1.41105387E-04  1.15842501E-04  6.96403330E-05  6.61737374E-05
    8.85924914E-05  8.73912838E-05  8.59380611E-05  8.81937592E-05  6.96895107E-05  5.34201822E-05  5.10862964E-05  7.38588382E-05  7.22175250E-05  8.48076939E-05  1.25305151E-04  1.84861039E-04  2.48982770E-04  3.08078274E-04  3.52277189E-04  4.02399363E-04  3.19680618E-04  2.16968731E-04  1.50683146E-04  1.30362031E-04
    1.49104309E-04  1.22842964E-04  7.51171293E-05  5.43384273E-05  4.64481410E-05  2.77942296E-05  2.08605284E-05  2.28652398E-05  2.90208366E-05  2.97049841E-05  3.97101043E-05  3.56755040E-05  4.08945119E-05  3.07381783E-05  2.99780147E-05  3.11144186E-05  2.98116041E-05  3.55734353E-05  6.09521066E-05  1.42156354E-04
    2.05571934E-04  2.06836279E-04  1.96869337E-04  1.60999462E-04  1.33613726E-04  8.32812042E-05  9.82262308E-05  1.22307302E-04  1.19786915E-04  1.49941344E-04  1.35330485E-04  1.09227461E-04  9.84556928E-05  7.94462646E-05  6.98202597E-05  4.87908474E-05  4.87877789E-05  6.45982304E-05  1.16236143E-04  3.21331066E-04
    1.54638961E-04  2.22869962E-04  3.86786001E-04  4.74610888E-04  4.56087258E-04  3.85184822E-04  3.27291027E-04  2.19880721E-04  1.70336498E-04  1.64723800E-04  1.81187817E-04  1.83362726E-04  1.41225513E-04  7.92353083E-05  4.34835562E-05  2.76666971E-05  2.18348336E-05  1.70010835E-05  1.38198402E-05  2.25519394E-05
    4.33636839E-05  5.49317436E-05  7.27213442E-05  8.55617694E-05  5.61116320E-05  2.67486673E-05  2.30246107E-05  2.22286835E-05  2.53885794E-05  3.01045412E-05  2.53422433E-05  3.00554226E-05  5.63326186E-05  1.03210616E-04  1.58930017E-04  1.39535800E-04  1.59705282E-04  2.64055642E-04  2.53269217E-04  2.03321369E-04
    2.12690795E-04  1.88663639E-04  1.99296693E-04  1.52570500E-04  1.05954633E-04  1.12660986E-04  1.29697195E-04  1.31395259E-04  1.19763115E-04  1.32403539E-04  2.01185065E-04  2.43194752E-04  2.82820353E-04  3.15051599E-04  4.51836606E-04  4.35362638E-04  2.83383691E-04  2.42191763E-04  2.78642493E-04  2.40823304E-04
    1.67602496E-04  1.01837776E-04  7.23359066E-05  4.52136607E-05  3.09986984E-05  2.40017613E-05  2.62489668E-05  3.12139577E-05  3.16096075E-05  2.05493604E-05  1.74918488E-05  2.07196852E-05  2.30024278E-05  1.92694115E-05  1.68967465E-05  1.55187147E-05  2.06147411E-05  3.14002102E-05  5.90984543E-05  1.03406577E-04
    1.10248010E-04  1.35839964E-04  1.55368802E-04  1.35228768E-04  1.13612787E-04  1.12584916E-04  1.08328512E-04  1.19869651E-04  1.46496081E-04  1.70499533E-04  1.70388718E-04  1.07500809E-04  9.29552434E-05  7.64228864E-05  3.50494100E-05  2.80245954E-05  4.32836398E-05  8.69085396E-05  2.07555574E-04  4.04105411E-04
    2.30954256E-04  2.68583450E-04  2.91677378E-04  3.35376574E-04  4.74928440E-04  3.62891243E-04  2.69483793E-04  2.12478227E-04  3.09743184E-04  4.33582898E-04  2.98660324E-04  2.02837049E-04  9.81235528E-05  3.29181303E-05  1.72762157E-05  8.39553494E-06  6.31574276E-06  1.00801146E-05  2.11759041E-05  4.57785369E-05
    5.36135675E-05  5.32938422E-05  5.41134255E-05  3.61049360E-05  2.38714852E-05  1.89215154E-05  1.53915639E-05  1.90137154E-05  2.03002050E-05  1.70110708E-05  3.01072990E-05  6.26878962E-05  1.26937914E-04  2.83886992E-04  4.45152282E-04  4.91033502E-04  4.94210180E-04  5.80849573E-04  4.92209301E-04  3.36842321E-04
    2.87887295E-04  3.81291910E-04  3.66083154E-04  2.35293604E-04  1.92951503E-04  2.70493659E-04  2.94235958E-04  2.64721127E-04  1.61131833E-04  1.34089364E-04  1.76768585E-04  2.28861181E-04  3.06696632E-04  2.58492116E-04  1.47983305E-04  1.45862830E-04  2.71117743E-04  5.29419131E-04  4.95063623E-04  2.56501217E-04
    1.06006837E-04  4.89716361E-05  2.83264510E-05  2.58241109E-05  2.11792332E-05  1.82189010E-05  1.69089778E-05  1.61596658E-05  1.67042980E-05  2.07784331E-05  2.13394608E-05  2.02301689E-05  1.90762401E-05  1.34347231E-05  9.63742634E-06  1.16648803E-05  2.27257476E-05  4.13758859E-05  7.93557822E-05  1.38828749E-04
    1.37606839E-04  1.24368388E-04  1.17168299E-04  1.41877052E-04  1.62988186E-04  1.88546659E-04  1.84004278E-04  1.98219489E-04  1.41805883E-04  1.06613179E-04  7.66748263E-05  8.08754105E-05  1.07765699E-04  8.77120357E-05  6.88543979E-05  8.31202004E-05  1.59097942E-04  2.67064168E-04  3.13585820E-04  3.33544627E-04
    2.41473287E-04  2.02026154E-04  1.66188615E-04  2.79315720E-04  3.62780187E-04  4.19068159E-04  3.44493258E-04  4.20212926E-04  4.40597725E-04  2.80217247E-04  1.00109451E-04  3.38626516E-05  1.84926289E-05  1.16146328E-05  1.07526722E-05  1.11591627E-05  1.80797720E-05  2.66326126E-05  3.49687368E-05  3.89518884E-05
    5.00597328E-05  4.11002585E-05  3.21871344E-05  3.26946474E-05  3.53930070E-05  3.40990912E-05  3.34507158E-05  5.19482182E-05  5.87303098E-05  6.84840971E-05  1.19197817E-04  3.17525454E-04  9.08229694E-04       0.00148280       0.00157971       0.00149514  9.45616549E-04  6.89800294E-04  5.05436265E-04  4.33596566E-04
    3.76638504E-04  3.14802685E-04  3.18524896E-04  3.02009378E-04  4.22134361E-04  5.07096580E-04  3.64689371E-04  2.64779382E-04  2.00418820E-04  1.83809803E-04  2.08714990E-04  1.87824495E-04  1.01314738E-04  9.59478301E-05  1.70564943E-04  3.13601610E-04  4.26715124E-04  2.85002897E-04  1.59491911E-04  6.08162191E-05
    3.37611834E-05  3.02665775E-05  3.11431274E-05  2.91108628E-05  1.95052750E-05  1.57189638E-05  3.45482026E-05  5.23472134E-05  4.90905665E-05  5.14953437E-05  4.56810110E-05  3.29770397E-05  2.43889552E-05  2.56271954E-05  4.82891995E-05  7.81371925E-05  1.52117820E-04  2.19127221E-04  1.97445193E-04  1.81815962E-04
    1.41571694E-04  1.56721699E-04  2.02894572E-04  2.49288062E-04  2.65901349E-04  2.37823975E-04  1.68084643E-04  1.04324119E-04  5.83389677E-05  6.12192340E-05  1.18204012E-04  1.40302287E-04  1.24555656E-04  1.69870354E-04  2.45500885E-04  2.98663909E-04  2.81209720E-04  2.45094080E-04  2.82644075E-04  3.17008584E-04
    6.39430345E-05  6.75628018E-05  1.05774857E-04  1.49066991E-04  1.68495828E-04  1.47283222E-04  1.68620147E-04  1.29720971E-04  6.89284661E-05  4.41226602E-05  2.51396345E-05  2.30479549E-05  2.08705158E-05  2.11052144E-05  2.53751443E-05  4.08013001E-05  4.41716785E-05  4.75204654E-05  4.05714444E-05  3.39437430E-05
    2.94699233E-05  2.34655494E-05  3.80252844E-05  8.50155737E-05  1.35401328E-04  1.86881672E-04  2.42921854E-04  2.37904080E-04  2.79253174E-04  3.50210943E-04  6.12524393E-04       0.00169371       0.00335444       0.00324006       0.00182403       0.00107948  8.02528829E-04  5.64829105E-04  3.89835114E-04  2.53404006E-04
    2.25741931E-04  2.54689009E-04  2.97740473E-04  4.42335000E-04  4.54850339E-04  3.38096074E-04  2.05875395E-04  2.16254405E-04  1.51493176E-04  1.37340116E-04  1.52734498E-04  1.62854763E-04  2.22915669E-04  2.82099871E-04  1.82824459E-04  1.40466295E-04  1.00384971E-04  6.94782747E-05  4.74088547E-05  3.48521394E-05
    4.11084948E-05  4.57915120E-05  3.63796813E-05  3.84557824E-05  4.94258244E-05  6.30071201E-05  8.53457477E-05  7.41689536E-05  8.15473901E-05  1.02097102E-04  1.17902207E-04  1.64950784E-04  2.27086565E-04  2.07418799E-04  2.27596958E-04  2.61786972E-04  2.63452553E-04  1.80495748E-04  1.61307151E-04  1.43845466E-04
    1.77838829E-04  3.06554443E-04  3.46377050E-04  2.27381503E-04  1.36150155E-04  8.22466632E-05  5.33509306E-05  4.57946642E-05  6.70544542E-05  1.06928679E-04  2.00535526E-04  2.92106074E-04  3.17388501E-04  2.74129894E-04  2.73535737E-04  3.47347567E-04  6.49399597E-04  8.98567932E-04  6.28378659E-04  5.54604317E-04
    2.24241335E-05  3.75268496E-05  7.70878588E-05  1.01574750E-04  7.82471428E-05  5.87795395E-05  4.52398746E-05  2.81582273E-05  1.73604469E-05  1.38974884E-05  1.78595876E-05  2.46026308E-05  3.35560266E-05  4.01103558E-05  4.78611549E-05  6.21154028E-05  5.84787197E-05  4.88887295E-05  3.73539231E-05  3.28760653E-05
    4.37215470E-05  8.52431441E-05  2.37787374E-04  5.61466131E-04  7.56629712E-04  7.56540705E-04  5.79082594E-04  5.59102708E-04  5.55470543E-04  6.14862284E-04  8.77497625E-04       0.00159965       0.00248301       0.00206147       0.00112393  7.86052399E-04  5.19145218E-04  3.26130940E-04  2.22186957E-04  1.48018839E-04
    1.60368221E-04  1.88126501E-04  2.58513445E-04  2.72983462E-04  1.78174854E-04  1.50182245E-04  1.58471656E-04  1.49764252E-04  1.78127189E-04  2.55233558E-04  3.42543785E-04  3.19852130E-04  1.86744178E-04  1.19786533E-04  9.81900988E-05  6.62734578E-05  5.25507481E-05  6.14503874E-05  8.19290823E-05  9.31886115E-05
    9.16891336E-05  8.61100271E-05  9.50404675E-05  1.33399293E-04  1.42024039E-04  1.14107858E-04  8.63932280E-05  8.69910254E-05  1.37203016E-04  2.79680068E-04  3.68960543E-04  3.31344690E-04  2.61228704E-04  2.33978856E-04  2.29148614E-04  2.82387948E-04  2.57350704E-04  1.98097460E-04  1.72464554E-04  2.00822552E-04
    2.73472507E-04  2.80614979E-04  1.46082431E-04  5.44905846E-05  3.21980774E-05  3.06834138E-05  4.59109226E-05  6.27922650E-05  1.05355907E-04  2.07130754E-04  4.62892417E-04  4.60422787E-04  4.56624897E-04  5.22298494E-04  5.86640309E-04  8.68976273E-04  7.14658707E-04  4.88812676E-04  2.46317622E-04  1.30206094E-04
    3.33776132E-05  5.61572613E-05  7.73444915E-05  7.50012511E-05  4.82026917E-05  3.29280914E-05  2.28563756E-05  1.75532222E-05  1.60242100E-05  2.55359807E-05  2.90258769E-05  3.49091364E-05  4.38598968E-05  7.22882088E-05  1.34051809E-04  1.27306595E-04  9.51148454E-05  8.91734410E-05  7.00525032E-05  1.11183800E-04
    2.54309452E-04  5.67927924E-04  8.84151556E-04       0.00116702       0.00128546       0.00104503  6.68630481E-04  6.86193341E-04  6.30734729E-04  9.77446179E-04       0.00127812       0.00141592       0.00168440       0.00153707       0.00115686  3.67654010E-04  1.75681539E-04  1.46483875E-04  1.93606457E-04  2.35925859E-04
    2.94888675E-04  3.74158437E-04  2.36956058E-04  1.92374085E-04  2.00820005E-04  1.93095627E-04  1.82390452E-04  1.77480036E-04  1.89670841E-04  2.10569265E-04  1.92292282E-04  1.35539041E-04  1.03245470E-04  8.93437395E-05  7.43614230E-05  1.14083949E-04  1.79850323E-04  1.91976010E-04  2.05693078E-04  2.41057405E-04
    2.29467716E-04  2.06396322E-04  2.27678923E-04  2.07343661E-04  1.22758137E-04  7.69495324E-05  1.02789515E-04  1.68337258E-04  3.23406127E-04  5.54379297E-04  5.89346668E-04  4.55830346E-04  2.87930233E-04  2.13107925E-04  2.50145168E-04  2.49939922E-04  2.73376134E-04  2.15896607E-04  1.81122217E-04  1.55940187E-04
    1.22530369E-04  7.64812359E-05  3.93085897E-05  3.60336309E-05  4.02859545E-05  4.34146417E-05  5.87884628E-05  1.23481202E-04  2.66096300E-04  4.66611537E-04  4.93176741E-04  3.31397164E-04  3.68421217E-04  3.27747538E-04  3.00326113E-04  3.17141162E-04  2.66955826E-04  1.70214155E-04  7.61978352E-05  6.17347355E-05
    9.87414507E-05  9.88728296E-05  4.42063809E-05  3.19630260E-05  3.70012749E-05  3.44730079E-05  3.22504938E-05  3.91274586E-05  5.31368018E-05  6.08481769E-05  8.80406627E-05  1.07655329E-04  1.48774525E-04  1.75269361E-04  1.57464674E-04  1.50148845E-04  1.76401969E-04  2.26075472E-04  2.59107370E-04  5.40923032E-04
         0.00110792       0.00195743       0.00226546       0.00245508       0.00207879       0.00124576       0.00108359  8.65776424E-04  7.35111533E-04  6.73618457E-04  6.85692533E-04  7.54691088E-04  8.11796708E-04  4.76885230E-04  3.35739418E-04  2.18052647E-04  2.15420999E-04  2.81459716E-04  4.35017119E-04  5.41845220E-04
    4.13507260E-04  3.51876561E-04  2.33557385E-04  1.33598487E-04  1.12302126E-04  1.00570602E-04  9.15975009E-05  9.47352209E-05  1.02269393E-04  1.56926493E-04  2.18530924E-04  2.42105772E-04  2.02109185E-04  3.05459203E-04  4.25211063E-04  4.05865667E-04  3.21700290E-04  2.45750085E-04  2.95003697E-04  2.13602411E-04
    1.77320364E-04  1.51878176E-04  1.28101627E-04  1.09995032E-04  1.45429025E-04  1.83263675E-04  3.22167204E-04  3.86064120E-04  4.16542241E-04  5.15264848E-04  4.05479526E-04  2.84534131E-04  3.15115296E-04  4.16006508E-04  6.47187315E-04  4.62737420E-04  2.58714013E-04  1.98265818E-04  1.30114504E-04  7.77694388E-05
    4.78914575E-05  2.57288951E-05  3.41428211E-05  5.07273907E-05  5.56131237E-05  7.89282194E-05  1.45611356E-04  2.96068588E-04  4.15171114E-04  3.53374639E-04  3.03468770E-04  3.28716438E-04  3.69216906E-04  3.45331909E-04  2.93080303E-04  2.69212160E-04  1.63005416E-04  1.34754320E-04  1.53627459E-04  2.47436549E-04
    8.41822635E-05  6.43161214E-05  3.59606344E-05  5.21952868E-05  6.53529338E-05  6.39381587E-05  6.54453130E-05  8.79589540E-05  9.38255977E-05  1.24923818E-04  1.82349243E-04  2.68307195E-04  3.60493453E-04  3.70668385E-04  4.87283424E-04  7.59525171E-04  7.57563516E-04  6.79207295E-04  9.67659541E-04       0.00202900
         0.00215218       0.00164242       0.00119535  8.04079341E-04  5.71817004E-04  4.51321176E-04  4.66486338E-04  4.88281779E-04  3.96621677E-04  3.46700863E-04  3.78771149E-04  3.47464800E-04  3.79299079E-04  3.56208598E-04  2.95503409E-04  3.09920759E-04  4.11629991E-04  4.96795897E-04  5.15364021E-04  4.85757554E-04
    2.99968831E-04  1.71449356E-04  1.06788007E-04  5.02459406E-05  3.79198429E-05  3.18680230E-05  4.76418379E-05  8.83154171E-05  1.24599794E-04  1.78703887E-04  2.87668053E-04  4.61678683E-04  5.24600114E-04  6.62521617E-04  4.15467621E-04  2.98143362E-04  2.74866161E-04  2.59576358E-04  1.38624519E-04  1.03532080E-04
    9.63855023E-05  8.40643654E-05  8.15732451E-05  9.65181203E-05  1.35431093E-04  1.49038900E-04  1.92332060E-04  3.18873361E-04  4.18888894E-04  4.23240455E-04  4.06469120E-04  3.45265867E-04  3.49700356E-04  3.57427527E-04  3.10911014E-04  2.26649774E-04  1.75806651E-04  9.87550503E-05  8.45234012E-05  4.84046618E-05
    6.01997907E-05  6.21887873E-05  3.49238450E-05  3.81052389E-05  9.42908657E-05  1.95234576E-04  3.77081447E-04  3.52934520E-04  3.50599936E-04  3.26979335E-04  3.62583479E-04  3.93600320E-04  2.55532840E-04  2.19136214E-04  2.22603428E-04  2.28826824E-04  1.76242722E-04  1.68697268E-04  2.50591881E-04  3.48735958E-04
    3.91476990E-05  4.48294376E-05  4.59458905E-05  5.49627641E-05  6.28717796E-05  9.29082938E-05  8.44613766E-05  8.09729773E-05  1.18780063E-04  2.19190540E-04  3.96383999E-04  3.91210214E-04  4.13011349E-04  5.42011849E-04  7.21781533E-04  8.33399803E-04  8.43682057E-04       0.00119032       0.00135812       0.00133472
         0.00133472       0.00133472       0.00133472  9.14041976E-04  3.93159009E-04  2.36768493E-04  3.04624657E-04  3.27457530E-04  3.24332105E-04  2.58116014E-04  2.33172686E-04  2.22424884E-04  2.62706737E-04  2.54678216E-04  1.69364906E-04  1.40215330E-04  2.06026015E-04  3.03236514E-04  3.33068182E-04  3.72048655E-04
    3.73754056E-04  3.05628739E-04  1.93862769E-04  1.48533984E-04  9.83785635E-05  4.72842849E-05  2.55601939E-05  2.15134714E-05  3.13961699E-05  4.54723742E-05  6.18267574E-05  1.12952844E-04  2.14987372E-04  3.02261675E-04  3.39303219E-04  2.81568555E-04  2.75770032E-04  1.92131359E-04  1.31585186E-04  8.70803771E-05
    5.01505586E-05  3.73640587E-05  3.45979711E-05  3.45979711E-05  3.45979711E-05  3.45979711E-05  3.72084372E-05  5.90185804E-05  7.10825925E-05  7.52765207E-05  1.05722246E-04  1.62194814E-04  1.81805938E-04  2.06241647E-04  2.13767664E-04  2.46355849E-04  2.59774645E-04  1.98633367E-04  1.91933076E-04  1.49533032E-04
    1.40072793E-04  1.26998641E-04  1.03881803E-04  1.04486171E-04  1.20159680E-04  1.18783308E-04  7.90947545E-05  8.17267344E-05  1.05784195E-04  1.30949914E-04  2.35346053E-04  3.38390114E-04  3.01531595E-04  2.90387862E-04  3.44286695E-04  3.00148179E-04  1.96146167E-04  1.31578859E-04  1.07875739E-04  1.55320887E-04
    1.98135481E-04  2.62384241E-04  2.27873126E-04  1.82151285E-04  2.49653043E-04  2.80378684E-04  5.07380790E-05  6.63001763E-05  1.16199277E-04  2.09757726E-04  1.93630543E-04  1.38835519E-04  1.53945483E-04  2.36817595E-04  3.24301971E-04  3.59234484E-04  3.75681137E-04  4.89255780E-04  6.45726152E-04  6.51996009E-04
    6.65947151E-04  6.71362485E-04  7.73135867E-04  6.83174205E-04  5.32092610E-04  5.32092610E-04  5.32092610E-04  5.32092610E-04  4.17349437E-04  4.17349437E-04  4.17349437E-04  4.17349437E-04  4.17349437E-04  4.17349437E-04  4.17349437E-04  4.17349437E-04  4.17349437E-04  4.17349437E-04  4.17349437E-04  4.17349437E-04
    4.17349437E-04  4.17349437E-04  4.17349437E-04  4.17349437E-04  4.17349437E-04  4.17349437E-04  4.17349437E-04  4.17349437E-04  4.17349437E-04  4.17349437E-04  4.17349437E-04  4.17349437E-04  4.17349437E-04  4.17349437E-04  4.17349437E-04  4.17349437E-04  4.17349437E-04  4.17349437E-04  4.17349437E-04  4.17349437E-04
    4.17349437E-04  4.17349437E-04  4.17349437E-04  4.17349437E-04  4.17349437E-04  4.17349437E-04  4.17349437E-04  4.17349437E-04  3.41186569E-04  3.41186569E-04  3.41186569E-04  3.41186569E-04  3.51991604E-04  4.05360724E-04  4.26455721E-04  3.46158957E-04  3.24587385E-04  3.83239071E-04  3.36381663E-04  1.50243691E-04
    8.45027197E-05  6.26003569E-05  6.31387037E-05  8.45337822E-05  1.35749171E-04  1.33453431E-04  1.61888513E-04  1.37333891E-04  1.02478786E-04  8.29625468E-05  5.85636140E-05  4.76003146E-05  3.16868287E-05  2.46965892E-05  2.02070555E-05  2.21971356E-05  3.48906112E-05  4.66209840E-05  9.15081602E-05  1.56151560E-04
    1.77646104E-04  1.96080914E-04  1.68646297E-04  1.25675459E-04  6.98301719E-05  5.91108336E-05  3.84675994E-05  2.47432647E-05  2.24188919E-05  2.14717367E-05  2.14717367E-05  2.14717367E-05  2.14717367E-05  2.57251126E-05  2.57251126E-05  2.57251126E-05  2.57251126E-05  2.57251126E-05  2.57251126E-05  2.57251126E-05
    2.57251126E-05  2.57251126E-05  2.57251126E-05  2.57251126E-05  2.57251126E-05  2.57251126E-05  2.57251126E-05  2.57251126E-05  2.57251126E-05  2.57251126E-05  2.57251126E-05  2.57251126E-05  2.57251126E-05  2.57251126E-05  2.57251126E-05  2.57251126E-05  2.57251126E-05  2.57251126E-05  2.57251126E-05  2.57251126E-05
    2.57251126E-05  2.57251126E-05  2.57251126E-05  2.57251126E-05  2.57251126E-05  2.57251126E-05  2.57251126E-05  2.57251126E-05  2.57251126E-05  2.57251126E-05  2.57251126E-05  2.57251126E-05  2.57251126E-05  4.16145733E-05  4.16145733E-05  4.16145733E-05  4.16145733E-05  5.27141758E-05  5.39346310E-05  5.02242282E-05
    6.21648321E-05  6.55344679E-05  8.21693038E-05  1.07073936E-04  1.08634400E-04  1.34628297E-04  1.67730278E-04  1.33852468E-04  8.16178355E-05  6.20690555E-05  5.34302977E-05  7.87468199E-05  1.06692144E-04  1.31192652E-04  1.52088413E-04  2.12541396E-04  2.98064553E-04  3.64455034E-04  3.82354325E-04  3.59827622E-04
    2.62630372E-04  2.69853269E-04  3.65732721E-04  4.26601401E-04  3.34895202E-04  2.44876085E-04  1.49486738E-04  1.64485851E-04  1.72172826E-04  2.13917493E-04  1.92603621E-04  1.92550397E-04  2.22215917E-04  3.47322319E-04  4.33829336E-04  4.90639228E-04  1.03976057E-04  2.15781255E-04  3.05789018E-04  2.63651788E-04
    2.86015103E-04  2.43205983E-04  2.17753516E-04  3.76428233E-04  6.62500463E-04  7.11492019E-04  4.66943668E-04  3.05855623E-04  2.79190410E-04  2.76940583E-04  3.38001997E-04  2.33564109E-04  2.22609072E-04  2.05534241E-04  1.57240611E-04  1.91018503E-04  1.91018503E-04  1.91018503E-04  1.91018503E-04  2.83673620E-04
    3.05642909E-04  2.78937068E-04  3.08088744E-04  3.52721453E-04  2.86576465E-04  1.96969083E-04  1.07104195E-04  7.42631696E-05  4.91223771E-05  4.73729583E-05  6.36146354E-05  9.31091932E-05  1.52128380E-04  1.23068916E-04  1.07736947E-04  8.83894458E-05  7.02985602E-05  4.19481260E-05  3.77403462E-05  4.38772047E-05
    4.39760436E-05  3.65702880E-05  3.53436319E-05  3.76449855E-05  3.52961051E-05  5.15887038E-05  6.64310974E-05  8.21956996E-05  1.18322944E-04  1.39101713E-04  1.41927200E-04  6.43098491E-05  4.45726119E-05  2.58191152E-05  1.68044033E-05  1.51517720E-05  1.95702344E-05  1.90678021E-05  2.64128287E-05  2.64128287E-05
    2.64128287E-05  2.64128287E-05  3.29687109E-05  4.46025863E-05  5.31296514E-05  7.24752163E-05  8.81558115E-05  1.21765750E-04  1.49478178E-04  1.22720744E-04  1.33643387E-04  1.22377101E-04  1.00867974E-04  5.04939358E-05  3.48937741E-05  3.90299949E-05  7.17566347E-05  1.41701038E-04  2.38808449E-04  3.62765641E-04
    4.24272414E-04  4.29293438E-04  3.83090668E-04  2.92274974E-04  1.82672714E-04  1.87069016E-04  2.51842406E-04  3.62047789E-04  3.79678918E-04  3.30208212E-04  2.45574948E-04  1.89334267E-04  1.72505187E-04  1.46127864E-04  1.50175692E-04  1.64001247E-04  2.22073884E-04  2.49191699E-04  2.04957785E-04  1.39464559E-04
    1.29261817E-04  1.65371953E-04  2.61791565E-04  3.38039169E-04  3.64057460E-04  4.82419530E-04  4.40847998E-04  4.32753041E-04  4.39894402E-04  4.59049888E-04  3.40883177E-04  1.86600580E-04  1.46145797E-04  1.32422230E-04  1.02415428E-04  8.02236153E-05  7.45197449E-05  7.17214463E-05  9.14273944E-05  1.03766493E-04
    1.53950880E-04  1.87541099E-04  2.52053654E-04  2.66924205E-04  3.22121204E-04  3.07792988E-04  2.46502898E-04  1.87030953E-04  1.07038755E-04  1.12335897E-04  1.16122851E-04  1.44725869E-04  1.16264495E-04  1.15795231E-04  9.86171161E-05  9.07766295E-05  8.70975361E-05  1.08714338E-04  1.04698161E-04  7.05752323E-05
    4.72680302E-05  4.84931474E-05  3.40038876E-05  2.74053842E-05  3.11702289E-05  3.73362822E-05  4.15203306E-05  4.70764133E-05  4.74310123E-05  4.97480194E-05  7.93601740E-05  8.85302681E-05  7.87225271E-05  6.14272631E-05  3.59554574E-05  2.77073818E-05  1.97241509E-05  1.52626733E-05  1.79167359E-05  3.10739528E-05
    4.88228854E-05  6.79272401E-05  8.62524114E-05  1.07360799E-04  1.26968309E-04  1.77157122E-04  2.54183977E-04  2.73566320E-04  2.66479341E-04  2.29444056E-04  2.10966268E-04  1.61926816E-04  7.46895960E-05  4.83903636E-05  4.72253095E-05  5.50613279E-05  9.05698317E-05  1.85202832E-04  3.90039998E-04  4.98391706E-04
    4.82715039E-04  3.48881761E-04  2.17385002E-04  1.75084720E-04  1.91507321E-04  2.04574083E-04  1.74760698E-04  1.44882256E-04  1.28129314E-04  1.50487900E-04  7.73559440E-05  5.67938421E-05  5.39444363E-05  5.04849978E-05  5.35462597E-05  7.79425208E-05  7.06715015E-05  5.90376459E-05  6.53171817E-05  8.23469070E-05
    9.46655227E-05  1.26461539E-04  2.59143299E-04  3.29024500E-04  4.08923107E-04  5.11096420E-04  5.51716917E-04  5.41513875E-04  3.07395493E-04  1.50147780E-04  1.18257330E-04  8.85256135E-05  5.21794394E-05  4.57546847E-05  5.02159696E-05  4.94339954E-05  4.61715209E-05  6.79574454E-05  1.05382929E-04  1.76716887E-04
    2.61332416E-04  2.61206303E-04  2.86016322E-04  2.49250265E-04  1.92914702E-04  1.30180540E-04  1.60930683E-04  1.98390106E-04  2.04732850E-04  1.85790222E-04  1.98165525E-04  1.23830477E-04  9.74178879E-05  8.22321214E-05  9.87731917E-05  9.26378891E-05  6.14324618E-05  3.96743905E-05  3.26627654E-05  3.16099958E-05
    4.83951243E-05  4.58413871E-05  5.02065446E-05  6.73674059E-05  6.51483916E-05  4.45191176E-05  2.88314990E-05  3.10160919E-05  4.57478984E-05  6.52058060E-05  8.26467457E-05  6.92827762E-05  4.45605167E-05  4.02370644E-05  4.46868182E-05  4.38501813E-05  4.15916634E-05  5.41066771E-05  8.36905733E-05  1.15635776E-04
    1.32144021E-04  2.13511771E-04  2.60928381E-04  3.44689034E-04  5.44877192E-04  7.64372675E-04  7.49821812E-04  4.54397011E-04  2.52795003E-04  1.98714821E-04  1.24469330E-04  8.42953468E-05  4.96816853E-05  3.64797705E-05  5.92246821E-05  1.60540295E-04  2.42111529E-04  1.87394980E-04  1.45082814E-04  1.77954732E-04
    1.95590934E-04  1.73897092E-04  1.84055843E-04  1.39454293E-04  8.64974063E-05  6.11114304E-05  4.37342061E-05  3.11996243E-05  3.70581954E-05  2.43403755E-05  2.12239584E-05  1.98566381E-05  1.46095844E-05  1.48831616E-05  2.32169479E-05  3.97900949E-05  4.23543155E-05  4.64753704E-05  4.84671731E-05  5.41613747E-05
    7.03862846E-05  5.23855304E-05  1.57911089E-04  2.27715025E-04  2.71516251E-04  2.62489128E-04  2.65162019E-04  1.80587537E-04  1.14711499E-04  1.05718559E-04  1.11846706E-04  9.15437708E-05  7.55977823E-05  6.77322945E-05  7.54759502E-05  9.92020238E-05  1.60822491E-04  1.85651296E-04  1.98359015E-04  1.93219621E-04
    2.07178744E-04  1.98905898E-04  1.92928624E-04  2.17566450E-04  2.25635539E-04  2.53117576E-04  2.74739842E-04  1.88098946E-04  1.46294887E-04  1.35257854E-04  9.66507017E-05  6.67415095E-05  6.62857198E-05  7.36026674E-05  6.31022003E-05  4.54985836E-05  2.30827732E-05  2.10063684E-05  3.38769905E-05  5.10692434E-05
    7.90092877E-05  9.41289920E-05  1.01030952E-04  7.76368014E-05  6.76550422E-05  7.40124767E-05  7.77461517E-05  8.73775750E-05  1.09541054E-04  1.04136925E-04  6.76997715E-05  5.34453440E-05  6.82960763E-05  8.03460278E-05  8.78480903E-05  8.25319398E-05  1.25460835E-04  2.52884608E-04  2.94854214E-04  2.86982201E-04
    2.94296050E-04  3.19622610E-04  3.77623974E-04  4.99875256E-04  6.65586496E-04  6.51021239E-04  5.72871361E-04  2.39366672E-04  1.68088834E-04  1.22839111E-04  1.08381045E-04  8.79022022E-05  1.04318365E-04  9.38379146E-05  8.72569317E-05  9.41514908E-05  8.20033268E-05  8.62206070E-05  8.27649755E-05  8.45362780E-05
    1.08397393E-04  1.28816234E-04  1.01434085E-04  8.06788361E-05  4.38761954E-05  2.36819689E-05  1.88192236E-05  2.01346224E-05  1.27414999E-05  6.97368664E-06  5.73432982E-06  8.15440431E-06  1.24027092E-05  1.95686917E-05  2.73543091E-05  3.17925804E-05  3.24462535E-05  3.50398863E-05  2.93604546E-05  3.29779414E-05
    3.76357495E-05  4.74482634E-05  1.81742479E-04  1.67548916E-04  1.04797973E-04  7.71812604E-05  7.65165769E-05  8.09277027E-05  9.82519051E-05  1.15178046E-04  8.47860731E-05  1.00861164E-04  9.68218423E-05  1.41452121E-04  1.61544815E-04  1.98227363E-04  1.40573704E-04  1.32915065E-04  1.75957411E-04  1.32813637E-04
    1.28221332E-04  1.70911370E-04  1.47228484E-04  1.65083397E-04  2.09921865E-04  1.70528902E-04  1.28888164E-04  1.28633489E-04  7.89130063E-05  5.79618272E-05  4.43458478E-05  3.76280691E-05  3.04959951E-05  2.26424676E-05  2.16166667E-05  2.53444217E-05  3.16966023E-05  6.01310751E-05  1.25333647E-04  2.87762032E-04
    3.72034795E-04  2.55915683E-04  2.13737540E-04  2.35038584E-04  2.05840449E-04  1.69654752E-04  1.19235178E-04  1.26499103E-04  1.05883647E-04  5.76138673E-05  4.31131172E-05  3.29308418E-05  3.20088048E-05  4.39399076E-05  5.97815616E-05  1.15087877E-04  2.26025524E-04  2.89771070E-04  3.03097342E-04  3.91056336E-04
    3.13538030E-04  2.32019080E-04  2.43131608E-04  2.91338218E-04  2.53103065E-04  2.28222395E-04  2.03294432E-04  1.57893011E-04  1.32354017E-04  1.01069587E-04  1.03006875E-04  1.19234360E-04  1.34306542E-04  1.00685472E-04  1.04149404E-04  1.17507742E-04  1.19042349E-04  1.24784211E-04  1.75057147E-04  1.87430551E-04
    2.73021036E-04  2.81607998E-04  2.05532796E-04  8.54470535E-05  4.95943883E-05  2.90771790E-05  1.75035770E-05  1.54485703E-05  1.65265244E-05  1.74182194E-05  1.51360636E-05  1.60043763E-05  2.00117180E-05  3.01583267E-05  3.43433969E-05  3.61642051E-05  3.57359962E-05  3.48324723E-05  3.55819693E-05  4.14346197E-05
    6.26560135E-05  8.17872570E-05  7.81011355E-05  8.13016083E-05  1.33179885E-04  1.74072658E-04  1.83032673E-04  1.78385694E-04  1.62551838E-04  1.43526900E-04  1.70137591E-04  2.34265474E-04  2.54110792E-04  2.89566715E-04  2.60184373E-04  2.54058825E-04  2.37675040E-04  1.73664596E-04  9.53843424E-05  8.31660059E-05
    9.78830142E-05  1.22374171E-04  1.19610206E-04  1.13634204E-04  1.61880720E-04  1.64770096E-04  1.28478923E-04  7.37314766E-05  4.29519580E-05  2.43328337E-05  1.91912997E-05  2.41680864E-05  2.42030489E-05  3.49034795E-05  5.82953348E-05  1.37539713E-04  2.77678021E-04  4.41006332E-04  5.97739675E-04  5.52211666E-04