# File generated by Flopy version 3.6.0 on 09/16/2024 at 10:53:03.
BEGIN griddata
  strt
    INTERNAL  FACTOR  1.0
        15.00000000      15.00000000      15.00000000      15.00000000      15.00000000      15.00000000      15.00000000      15.00000000      15.00000000      15.00000000      15.00000000      15.00000000      15.00000000      15.00000000      15.00000000      15.00000000      15.00000000      15.00000000      15.00000000      15.00000000
        15.00000000      15.00000000      15.00000000      15.00000000      15.00000000      15.00000000      15.00000000      15.00000000      15.00000000      15.00000000      15.00000000      15.00000000      15.00000000      15.00000000      15.00000000      15.00000000      15.00000000      15.00000000      15.00000000      15.00000000
        15.00000000      15.00000000      15.00000000      15.00000000      15.00000000      15.00000000      15.00000000      15.00000000      15.00000000      15.00000000      15.00000000      15.00000000      15.00000000      15.00000000      15.00000000      15.00000000      15.00000000      15.00000000      15.00000000      15.00000000
        15.00000000      15.00000000      15.00000000      15.00000000      15.00000000      15.00000000      15.00000000      15.00000000      15.00000000      15.00000000      15.00000000      15.00000000      15.00000000      15.00000000      15.00000000      15.00000000      15.00000000      15.00000000      15.00000000      15.00000000
        15.00000000      15.00000000      15.00000000      15.00000000      15.00000000      15.00000000      15.00000000      15.00000000      15.00000000      15.00000000      15.00000000      15.00000000      15.00000000      15.00000000      15.00000000      15.00000000      15.00000000      15.00000000      15.00000000      15.00000000
        15.03426881      15.03353038      15.03315745      15.03429926      15.03729506      15.04075074      15.04464931      15.04930173      15.05319242      15.05629132      15.05692886      15.05754738      15.05857624      15.05787011      15.05759480      15.05882347      15.05887534      15.05878223      15.05893330      15.05888787
        15.05922034      15.06089988      15.06049555      15.06038331      15.06071262      15.06091086      15.06442426      15.07159509      15.07864048      15.08742033      15.09524306      15.10202668      15.10831323      15.11648568      15.12576578      15.13748135      15.15102942      15.16052604      15.16627113      15.16240370
        15.14946937      15.13473908      15.12323451      15.11881783      15.11872007      15.11536003      15.11238435      15.11208177      15.11200041      15.11558929      15.11906606      15.12142079      15.12781448      15.13588404      15.14421828      15.14789574      15.14942390      15.15181033      15.15053197      15.14892774
        15.14951188      15.14528930      15.14029753      15.13913800      15.14448105      15.15301064      15.16317148      15.17474664      15.18971037      15.19956227      15.20746993      15.22137875      15.23963426      15.24806985      15.25292440      15.25315616      15.25248670      15.24673615      15.23901970      15.23517836
        15.22189109      15.20424913      15.19797311      15.20164005      15.20366584      15.20132433      15.19294501      15.18502808      15.17765641      15.17425067      15.17529090      15.17817187      15.18320883      15.18878552      15.19458190      15.20413272      15.20526476      15.20144330      15.19753750      15.19207214
        15.07094811      15.07057585      15.07006345      15.07099469      15.07494608      15.07950290      15.08491993      15.09102297      15.09699065      15.10199596      15.10504898      15.10749950      15.10985626      15.11151525      15.11256410      15.11454899      15.11667297      15.11852035      15.11995230      15.12150747
        15.12264403      15.12300567      15.12184557      15.11998553      15.12052960      15.12261230      15.12815925      15.13789455      15.14835105      15.16058168      15.17458958      15.18717338      15.19995301      15.21603118      15.23317770      15.25093149      15.27324337      15.29148982      15.30444152      15.30347948
        15.28757469      15.26445324      15.24232649      15.23071357      15.22902739      15.22635451      15.22027449      15.21761315      15.21919597      15.22191845      15.22666470      15.23116335      15.23975169      15.25087707      15.26336624      15.27316908      15.27846811      15.28199599      15.28243754      15.27983624
        15.27930980      15.27657309      15.26935386      15.26845543      15.27396289      15.28624194      15.30100594      15.31961760      15.34351566      15.36435604      15.38018155      15.39725583      15.41889639      15.43505494      15.44666314      15.44853027      15.44862496      15.44591295      15.44064836      15.43480584
        15.42316708      15.39968122      15.38288445      15.38332298      15.38588672      15.38707554      15.37648019      15.36424581      15.35226452      15.34400930      15.34511007      15.35226467      15.36039771      15.36868212      15.37784506      15.39268053      15.39657431      15.39314609      15.39013555      15.38605755
        15.10821353      15.10873784      15.10856978      15.10913198      15.11224861      15.11638281      15.12211667      15.12864170      15.13639588      15.14285290      15.14855397      15.15334974      15.15752969      15.16165112      15.16523226      15.16832356      15.17316154      15.17888452      15.18344756      15.18703598
        15.18909541      15.18836235      15.18551694      15.18266971      15.18136650      15.18461206      15.19053242      15.20085840      15.21352110      15.22673115      15.24351088      15.26153005      15.28196246      15.30436955      15.32777936      15.35215809      15.38017729      15.40650174      15.42575659      15.43060025
        15.41777640      15.39113951      15.36390785      15.34458867      15.33752718      15.33377437      15.32716875      15.32145861      15.32118721      15.32302558      15.32705088      15.33121599      15.33876671      15.35048983      15.36454357      15.37935969      15.38943615      15.39520787      15.39851771      15.39816525
        15.39724823      15.39579608      15.39095125      15.38985096      15.39468384      15.40661903      15.42328894      15.44394645      15.47060889      15.49815917      15.52372400      15.54470310      15.56311154      15.58249046      15.59813561      15.60530971      15.60550731      15.60739696      15.60656036      15.60451784
        15.59657371      15.57757632      15.55598609      15.55033050      15.55341240      15.55567489      15.54857710      15.53531443      15.52117531      15.50860230      15.50547028      15.51543058      15.52618752      15.53774971      15.54970839      15.56408345      15.57406359      15.57410254      15.57156247      15.57006434
        15.14541775      15.14636131      15.14664268      15.14745238      15.14982271      15.15353485      15.15860597      15.16548543      15.17336951      15.18153039      15.18947160      15.19633889      15.20250417      15.20830617      15.21432571      15.22028275      15.22743663      15.23658767      15.24527705      15.25148993
        15.25434016      15.25384807      15.25110637      15.24835165      15.24568898      15.24816564      15.25354404      15.26294511      15.27607873      15.28976863      15.30720636      15.32888401      15.35475523      15.38200123      15.41052515      15.44104683      15.47362250      15.50671783      15.53165403      15.54391980
        15.53755524      15.51321826      15.48413773      15.46002289      15.44515824      15.43782103      15.43174252      15.42507219      15.41890348      15.41802227      15.42020382      15.42310665      15.42902706      15.43876105      15.45225441      15.46843081      15.48250145      15.49307088      15.50000677      15.50365404
        15.50445451      15.50438053      15.50274820      15.50287065      15.50684093      15.51721116      15.53291500      15.55422910      15.57953649      15.60959143      15.64140715      15.66723292      15.68553681      15.70508647      15.72258974      15.73365337      15.73660802      15.74027517      15.74402821      15.74451147
        15.74117958      15.73081744      15.71438810      15.70383146      15.70346224      15.70519670      15.70201491      15.69085742      15.67842213      15.66402837      15.65592021      15.66198674      15.67513727      15.68938128      15.70359904      15.71693477      15.73202189      15.73976812      15.74072177      15.73989378
        15.18295938      15.18333923      15.18345972      15.18482047      15.18662947      15.19036792      15.19529729      15.20239899      15.21018054      15.21925995      15.22830665      15.23692335      15.24423689      15.25105435      15.25867577      15.26765589      15.27779102      15.28951877      15.30160817      15.31140900
        15.31689842      15.31784981      15.31742999      15.31511571      15.31273928      15.31430799      15.31888145      15.32694101      15.33843158      15.35236894      15.36916184      15.39241570      15.41979795      15.45056945      15.48323705      15.51781656      15.55504915      15.59261514      15.62362306      15.64391417
        15.64652147      15.63105266      15.60233821      15.57445121      15.55291551      15.54055479      15.53282706      15.52573815      15.51508117      15.50793335      15.50616279      15.50859164      15.51267627      15.51940554      15.52958617      15.54482780      15.56089742      15.57558448      15.58733194      15.59585929
        15.59961446      15.60128462      15.60219794      15.60582799      15.61129211      15.62062366      15.63360117      15.65253787      15.67621927      15.70619363      15.73956339      15.76885851      15.79151552      15.80978534      15.82669288      15.83874397      15.84552264      15.84981196      15.85529748      15.85894057
        15.86033975      15.85812976      15.84979597      15.84099386      15.83833816      15.83895451      15.83788005      15.83013585      15.82081664      15.80841108      15.79641883      15.79685485      15.81009622      15.82548913      15.84102945      15.85563729      15.87373612      15.89012658      15.89655722      15.89733610
        15.22009149      15.21994881      15.21973177      15.22074917      15.22251061      15.22599181      15.23150307      15.23859046      15.24653195      15.25557569      15.26528835      15.27518566      15.28335202      15.29141705      15.30050817      15.31152468      15.32422955      15.33793647      15.35198493      15.36488165
        15.37445916      15.37941035      15.38196851      15.38131927      15.38062254      15.38193245      15.38612501      15.39335199      15.40269975      15.41625271      15.43279049      15.45587878      15.48306904      15.51510021      15.54954344      15.58651949      15.62576110      15.66527832      15.70123491      15.73139619
        15.74730489      15.74192670      15.71681396      15.68477278      15.65970815      15.64281288      15.63134326      15.62229252      15.60996901      15.59801386      15.59104500      15.59020887      15.59112153      15.59481022      15.60156155      15.61407945      15.63003830      15.64652880      15.66306128      15.67641208
        15.68415978      15.68762223      15.69137183      15.69726390      15.70627102      15.71525835      15.72663782      15.74181668      15.76448783      15.79274598      15.82518948      15.85564384      15.88147104      15.90068403      15.91544244      15.92756534      15.93612994      15.94153377      15.94715649      15.95327868
        15.95817639      15.96153808      15.96035775      15.95614145      15.95583480      15.95667916      15.95726325      15.95460268      15.94865573      15.94080571      15.92994502      15.92580118      15.93397000      15.94927351      15.96586552      15.98334558      16.00404909      16.02557106      16.03526582      16.03907328
        15.25525552      15.25475411      15.25479073      15.25502313      15.25688483      15.26018252      15.26582493      15.27270065      15.28044544      15.28931436      15.29951115      15.31018282      15.31960353      15.32917078      15.33989926      15.35190909      15.36600954      15.38104073      15.39634579      15.41140577
        15.42439885      15.43471197      15.44151856      15.44419403      15.44659940      15.44852183      15.45301745      15.46015235      15.46948281      15.48244091      15.49898365      15.52018601      15.54729083      15.57900577      15.61314896      15.64992581      15.68801720      15.72690793      15.76568875      15.80441562
        15.83427093      15.84246029      15.82442285      15.79173100      15.76260456      15.74215355      15.72756046      15.71584235      15.70261808      15.69000978      15.67988380      15.67299777      15.66910259      15.66970031      15.67348975      15.68167897      15.69616330      15.71328066      15.73199261      15.74743428
        15.75918230      15.76617046      15.77264381      15.77973017      15.79023235      15.80070958      15.81169626      15.82653820      15.84661508      15.87230490      15.90215124      15.93221020      15.95897901      15.97990715      15.99450932      16.00504838      16.01393864      16.02021003      16.02659280      16.03297654
        16.03942374      16.04563723      16.05135811      16.05294910      16.05509265      16.05742225      16.05973922      16.06262617      16.06182414      16.05941997      16.05396761      16.04793186      16.05060880      16.06394518      16.08093767      16.10214056      16.12713266      16.14973904      16.16164091      16.16689034
        15.28981040      15.28899109      15.28908896      15.28882134      15.29034510      15.29389102      15.29909576      15.30532438      15.31267363      15.32149177      15.33155927      15.34236167      15.35315665      15.36414722      15.37590264      15.38887769      15.40353926      15.41943202      15.43588671      15.45282167
        15.46864235      15.48373516      15.49531472      15.50272405      15.50813337      15.51230503      15.51798791      15.52612784      15.53739913      15.55026276      15.56654740      15.58597480      15.61227437      15.64252536      15.67464523      15.70860435      15.74387267      15.78010016      15.82009535      15.86345386
        15.90305408      15.92535633      15.91999643      15.89404257      15.86275198      15.83805591      15.81982543      15.80562212      15.79189302      15.77978048      15.76943356      15.75908896      15.75073928      15.74718630      15.74745767      15.75121333      15.76287107      15.78006107      15.79701861      15.81203845
        15.82811982      15.83919813      15.84769919      15.85630964      15.86637509      15.87801013      15.88930012      15.90443463      15.92287632      15.94651308      15.97326541      16.00036066      16.02549182      16.04754873      16.06321592      16.07265190      16.08158585      16.08837497      16.09519558      16.10262413
        16.10938472      16.11741142      16.12684435      16.13481652      16.13916091      16.14299637      16.14717113      16.15247274      16.15704704      16.15984409      16.15992564      16.15698830      16.15808906      16.16865647      16.18599253      16.21121392      16.23921453      16.26188530      16.27646760      16.28149007
        15.32379430      15.32369975      15.32374211      15.32335525      15.32429796      15.32750744      15.33230322      15.33787725      15.34463470      15.35287860      15.36261115      15.37318778      15.38474464      15.39674081      15.40910661      15.42273567      15.43739565      15.45366184      15.47135380      15.48979783
        15.50866836      15.52708261      15.54292905      15.55518310      15.56422683      15.57236816      15.58052054      15.59021712      15.60281146      15.61652046      15.63232183      15.65072866      15.67433569      15.70227716      15.73181920      15.76247289      15.79440612      15.82843236      15.86850614      15.91328147
        15.95884317      15.99155078      16.00064318      15.98590793      15.95941636      15.93222132      15.91046888      15.89304965      15.87822966      15.86507533      15.85514241      15.84479955      15.83548206      15.82858852      15.82553454      15.82600840      15.83368418      15.84726604      15.85781613      15.86521254
        15.89108182      15.90872319      15.91939017      15.92856808      15.93808465      15.94772730      15.95943754      15.97332108      15.99177954      16.01359469      16.03671449      16.05959863      16.08169129      16.10274214      16.11887920      16.12922409      16.13833669      16.14607245      16.15338409      16.16198806
        16.16998436      16.17959134      16.18987204      16.20051435      16.20809814      16.21350891      16.21943589      16.22637919      16.23406388      16.23996248      16.24390603      16.24657559      16.25095791      16.26168923      16.28026030      16.30643392      16.33412635      16.35790817      16.37429928      16.38007909
        15.35694092      15.35742290      15.35770871      15.35759817      15.35819368      15.36080134      15.36491721      15.36996303      15.37603679      15.38311319      15.39257662      15.40280836      15.41411394      15.42659136      15.43941076      15.45278741      15.46763202      15.48392709      15.50224974      15.52184522
        15.54274932      15.56376809      15.58362074      15.60075725      15.61486102      15.62778688      15.63962372      15.65119994      15.66392072      15.67790785      15.69314609      15.71115857      15.73266354      15.75803703      15.78501190      15.81255689      15.84148777      15.87366692      15.91256845      15.95797853
        16.00571337      16.04489369      16.06719931      16.06461743      16.04701993      16.02281267      16.00015244      15.98019327      15.96361155      15.94791988      15.93695217      15.92826825      15.92056888      15.91425279      15.91019202      15.90845849      15.91089686      15.91477267      15.90520264      15.86412755
        15.93903317      15.97636600      15.99119779      15.99865362      16.00569159      16.01278383      16.02300871      16.03569618      16.05293579      16.07207224      16.09189870      16.11200002      16.13074097      16.14900101      16.16453975      16.17621717      16.18590020      16.19510755      16.20356972      16.21243118
        16.22220621      16.23281212      16.24343706      16.25453861      16.26473162      16.27274825      16.28070908      16.28913891      16.29816051      16.30566518      16.31218206      16.31899562      16.32930762      16.34317373      16.36351847      16.38856592      16.41438227      16.43785099      16.45403553      16.46060268
        15.38991848      15.39001629      15.39012893      15.39037325      15.39085638      15.39298616      15.39615485      15.40029481      15.40550047      15.41194274      15.42065343      15.42997073      15.44070798      15.45295120      15.46565701      15.47887311      15.49361518      15.50985488      15.52818276      15.54867571
        15.57051210      15.59415933      15.61772162      15.63978733      15.65896307      15.67613211      15.69195913      15.70592762      15.71893997      15.73248741      15.74740461      15.76534857      15.78649564      15.80958584      15.83389489      15.85795477      15.88426500      15.91494282      15.95352254      15.99930445
        16.04648917      16.08900390      16.12036663      16.12994338      16.12124943      16.10358594      16.08306624      16.06368332      16.04541490      16.02753971      16.01476553      16.00820443      16.00358518      16.00003719      15.99812220      15.99663741      15.99384468      15.98401988      15.92349546      15.60303749
        15.95399957      16.04161401      16.06249782      16.06694739      16.06928612      16.07375855      16.08135623      16.09292512      16.10758978      16.12396576      16.14100232      16.15830336      16.17440278      16.18956798      16.20291692      16.21523987      16.22585883      16.23641708      16.24658833      16.25584113
        16.26644482      16.27756021      16.28908861      16.30094143      16.31280964      16.32371896      16.33407776      16.34368309      16.35374423      16.36356939      16.37234712      16.38271379      16.39707986      16.41495995      16.43676567      16.46057214      16.48319330      16.50448455      16.51981593      16.52658052
        15.42246021      15.42206823      15.42208167      15.42260151      15.42271635      15.42396494      15.42609648      15.42928276      15.43367307      15.43940916      15.44676616      15.45523732      15.46525644      15.47681769      15.48912304      15.50208100      15.51614318      15.53226985      15.55074477      15.57176370
        15.59426709      15.61998092      15.64735174      15.67343746      15.69665998      15.71738179      15.73639849      15.75276528      15.76702124      15.78056926      15.79585381      15.81432930      15.83583709      15.85753658      15.87877994      15.89967681      15.92378482      15.95396574      15.99295061      16.03752552
        16.08287507      16.12638830      16.16255144      16.18217916      16.18265935      16.17191755      16.15630528      16.14059561      16.12267691      16.10425051      16.09050641      16.08469793      16.08303627      16.08308317      16.08521144      16.08687219      16.08455891      16.07922549      16.06175596      16.01596850
        16.09292358      16.12653801      16.13661702      16.13597217      16.13295784      16.13339965      16.13755802      16.14651503      16.15803403      16.17209663      16.18647666      16.20030335      16.21420688      16.22621461      16.23727990      16.24884646      16.25974103      16.27084429      16.28182938      16.29197844
        16.30275057      16.31443270      16.32687958      16.34026489      16.35390385      16.36789387      16.38062516      16.39246292      16.40375538      16.41614387      16.42799784      16.44109924      16.45693433      16.47667676      16.49846035      16.52015133      16.54001413      16.55852279      16.57326499      16.58025552
        15.45268141      15.45249051      15.45290086      15.45382744      15.45411902      15.45430359      15.45534136      15.45765684      15.46133457      15.46618487      15.47199881      15.47985654      15.48937131      15.50016868      15.51167774      15.52392110      15.53735483      15.55320188      15.57182477      15.59289235
        15.61619016      15.64373530      15.67396828      15.70281864      15.72878064      15.75257267      15.77428415      15.79317891      15.80923853      15.82414972      15.84033357      15.85922097      15.88024921      15.90086240      15.91930374      15.93831477      15.96080534      15.99056358      16.02903971      16.07220064
        16.11582983      16.15793567      16.19604557      16.22132880      16.22972231      16.22650032      16.21743922      16.20657988      16.19394752      16.17808953      16.16493397      16.15868424      16.15827984      16.16201264      16.16829603      16.17401915      16.17445446      16.17110630      16.16941479      16.17130946
        16.19367883      16.20687017      16.21079724      16.20648521      16.19740429      16.19296577      16.19306771      16.19815791      16.20654405      16.21754486      16.22938525      16.24012686      16.25111982      16.26044296      16.26929617      16.27901714      16.28932519      16.29990753      16.31045587      16.32109348
        16.33209854      16.34430405      16.35814172      16.37319040      16.38900812      16.40597451      16.42114648      16.43546458      16.44866286      16.46264789      16.47663662      16.49097236      16.50762347      16.52721460      16.54760032      16.56725354      16.58536087      16.60232651      16.61618203      16.62358700
        15.47912626      15.48002925      15.48121554      15.48310826      15.48443504      15.48441679      15.48467412      15.48570885      15.48825954      15.49258138      15.49745372      15.50476145      15.51414256      15.52404564      15.53459876      15.54579557      15.55867542      15.57417225      15.59280882      15.61401393
        15.63795508      15.66644617      15.69813590      15.72900388      15.75722758      15.78357523      15.80742475      15.82819111      15.84618768      15.86260971      15.87959763      15.89848124      15.91822739      15.93752407      15.95404065      15.97199124      15.99358279      16.02288623      16.06042124      16.10276758
        16.14478564      16.18426585      16.22188213      16.25002513      16.26442734      16.26849545      16.26639064      16.26095290      16.25530407      16.24615809      16.23650328      16.23053998      16.23022721      16.23584703      16.24475668      16.25482196      16.26004868      16.25866149      16.25844826      16.26427900
        16.27526581      16.28312719      16.28365131      16.27601295      16.26152668      16.25120108      16.24753609      16.24853983      16.25336442      16.26104446      16.27006794      16.27824137      16.28602087      16.29288135      16.29939764      16.30709788      16.31635552      16.32620697      16.33580352      16.34586772
        16.35693198      16.36946531      16.38445409      16.40116675      16.41977658      16.43899172      16.45686497      16.47289950      16.48759249      16.50208078      16.51624068      16.53136189      16.54859317      16.56789562      16.58721814      16.60551542      16.62259012      16.63900195      16.65172444      16.65922736
        15.50338380      15.50524535      15.50756802      15.51057711      15.51310662      15.51397444      15.51423468      15.51413217      15.51540801      15.51882519      15.52391657      15.53099288      15.53987408      15.54911952      15.55856823      15.56857101      15.58119464      15.59637069      15.61501493      15.63588032
        15.65999863      15.68834822      15.72099665      15.75364739      15.78368509      15.81123052      15.83620703      15.85827764      15.87776446      15.89535350      15.91290316      15.93119007      15.94972382      15.96736772      15.98308625      16.00028050      16.02148803      16.05023353      16.08705933      16.12898840
        16.16972115      16.20680950      16.24269949      16.27263360      16.29190831      16.30229281      16.30677968      16.30728122      16.30694469      16.30532065      16.30207177      16.29923580      16.29986969      16.30508555      16.31492283      16.32800443      16.33897695      16.34322762      16.34313882      16.34665441
        16.35404897      16.35868565      16.35495567      16.34276883      16.32449058      16.30832070      16.30019047      16.29696457      16.29814143      16.30236728      16.30815344      16.31406043      16.31882563      16.32336410      16.32810679      16.33416839      16.34219566      16.35106122      16.35977158      16.36883438
        16.37948735      16.39212805      16.40796913      16.42643155      16.44758810      16.46892432      16.48868083      16.50552102      16.52079159      16.53498190      16.54863448      16.56380928      16.58151031      16.60083357      16.61984464      16.63699505      16.65345507      16.66900721      16.68083514      16.68750048
        15.52633297      15.52858068      15.53192102      15.53541720      15.53877709      15.54084871      15.54199638      15.54209910      15.54258924      15.54511669      15.55062495      15.55790237      15.56578313      15.57431953      15.58286847      15.59228125      15.60439262      15.61932649      15.63748080      15.65789193
        15.68160104      15.70948320      15.74215423      15.77573770      15.80648829      15.83405752      15.85975921      15.88285978      15.90335916      15.92155488      15.93894149      15.95661619      15.97464137      15.99120629      16.00667940      16.02339285      16.04448065      16.07263860      16.10884734      16.15078839
        16.19074442      16.22613375      16.26053445      16.29122593      16.31413496      16.32970358      16.33965177      16.34555455      16.34979578      16.35368567      16.35660063      16.35890941      16.36249615      16.36777848      16.37766433      16.39187293      16.40664761      16.41780897      16.42317136      16.42679622
        16.43129952      16.43195622      16.42354458      16.40479068      16.38274775      16.36186629      16.34865683      16.34141814      16.33841122      16.33903503      16.34172231      16.34556787      16.34842909      16.35146349      16.35493979      16.35988956      16.36637659      16.37407029      16.38210665      16.39030507
        16.40038283      16.41325323      16.42987166      16.44985983      16.47303243      16.49599432      16.51644518      16.53367669      16.54892234      16.56262803      16.57530447      16.59000878      16.60724914      16.62663767      16.64568869      16.66234856      16.67810557      16.69248287      16.70327233      16.70885333
        15.54840760      15.55060795      15.55429822      15.55782731      15.56125904      15.56452311      15.56678487      15.56815913      15.56906482      15.57158024      15.57696006      15.58410844      15.59143673      15.59923867      15.60697164      15.61632110      15.62792111      15.64265359      15.65999012      15.67993017
        15.70277588      15.72954869      15.76109631      15.79440068      15.82469197      15.85245229      15.87822579      15.90160980      15.92263279      15.94123665      15.95871469      15.97648707      15.99437070      16.01050529      16.02560361      16.04208684      16.06320509      16.09104980      16.12677455      16.16867331