# File generated by Flopy version 3.6.0 on 09/19/2024 at 10:05:02.
BEGIN options
END options

BEGIN dimensions
  MAXBOUND  5
END dimensions

BEGIN period  1
  1 1120 0.00000000E+00
  1 1160 0.00000000E+00
  1 3120 0.00000000E+00
  1 3180 -2.50000000E-05
  1 4170 -2.50000000E-04
END period  1

