# File generated by Flopy version 3.7.0 on 06/10/2024 at 08:50:51.
BEGIN options
END options

BEGIN griddata
  strt
    INTERNAL  FACTOR  1.0
        15.00000000      15.00000000      15.00000000      15.00000000      15.00000000      15.00000000      15.00000000      15.00000000      15.00000000      15.00000000      15.00000000      15.00000000      15.00000000      15.00000000      15.00000000      15.00000000      15.00000000      15.00000000      15.00000000      15.00000000
        15.00000000      15.00000000      15.00000000      15.00000000      15.00000000      15.00000000      15.00000000      15.00000000      15.00000000      15.00000000      15.00000000      15.00000000      15.00000000      15.00000000      15.00000000      15.00000000      15.00000000      15.00000000      15.00000000      15.00000000
        15.00000000      15.00000000      15.00000000      15.00000000      15.00000000      15.00000000      15.00000000      15.00000000      15.00000000      15.00000000      15.00000000      15.00000000      15.00000000      15.00000000      15.00000000      15.00000000      15.00000000      15.00000000      15.00000000      15.00000000
        15.00000000      15.00000000      15.00000000      15.00000000      15.00000000      15.00000000      15.00000000      15.00000000      15.00000000      15.00000000      15.00000000      15.00000000      15.00000000      15.00000000      15.00000000      15.00000000      15.00000000      15.00000000      15.00000000      15.00000000
        15.00000000      15.00000000      15.00000000      15.00000000      15.00000000      15.00000000      15.00000000      15.00000000      15.00000000      15.00000000      15.00000000      15.00000000      15.00000000      15.00000000      15.00000000      15.00000000      15.00000000      15.00000000      15.00000000      15.00000000
        15.03806650      15.03826003      15.03914221      15.04009541      15.04056037      15.03894343      15.03733040      15.03678157      15.03850144      15.04148691      15.04550062      15.04660125      15.04489023      15.03995870      15.03573927      15.03344130      15.03600081      15.04018500      15.04268768      15.04920507
        15.05175471      15.04935640      15.04841457      15.04614950      15.03971940      15.03412758      15.03444393      15.03918117      15.04236203      15.04178373      15.03943767      15.04345571      15.05819860      15.07645789      15.08778344      15.08758732      15.09399951      15.10701312      15.11470454      15.12356704
        15.13732133      15.14885207      15.15943019      15.15984976      15.15587318      15.14870998      15.13527880      15.12145509      15.10206088      15.08583552      15.07731592      15.07363443      15.07191839      15.06853065      15.06355054      15.06022550      15.05944935      15.06252725      15.06743743      15.07133790
        15.07745127      15.08233178      15.09055991      15.10496194      15.12159840      15.13476502      15.14879769      15.15766969      15.15945687      15.15567354      15.14915963      15.14946119      15.14654515      15.13945711      15.12841225      15.12306199      15.13248491      15.13848502      15.12871074      15.10584482
        15.08032181      15.06965040      15.07060256      15.08020452      15.09443401      15.10960402      15.11497387      15.11334296      15.10825263      15.10746741      15.11281030      15.11817801      15.13315327      15.13805772      15.12568239      15.13329701      15.16242485      15.19119230      15.20536779      15.20627877
        15.06600634      15.06445294      15.06438731      15.06479785      15.06547112      15.06528597      15.06465316      15.06539835      15.07085614      15.07582872      15.07822058      15.07766987      15.07552387      15.07315033      15.07457851      15.07889069      15.08991464      15.10882981      15.12496865      15.13194916
        15.12639342      15.11813256      15.11378986      15.10744147      15.10340472      15.10684170      15.11216123      15.12301684      15.12491560      15.12340381      15.14133335      15.16540127      15.18642244      15.20478343      15.21359557      15.21029146      15.21197764      15.22103803      15.22716861      15.22670770
        15.22598659      15.23028539      15.23393856      15.23296169      15.23339435      15.23447125      15.22769706      15.21134598      15.18984936      15.16714888      15.14946004      15.13522282      15.12291945      15.11098152      15.10101146      15.09899116      15.10708277      15.11766161      15.12385072      15.12502479
        15.12661045      15.13673126      15.15806367      15.19057554      15.22556236      15.26809480      15.30778180      15.32832688      15.33922059      15.35587965      15.35468776      15.34676256      15.33238807      15.32091354      15.30752084      15.31087038      15.32344789      15.31488278      15.28477493      15.24588911
        15.21109341      15.19021241      15.18507029      15.19527926      15.20935029      15.22367686      15.22323866      15.21850362      15.21385151      15.21417498      15.22634274      15.25215901      15.28163671      15.29905422      15.31077354      15.33364274      15.35265350      15.35293416      15.33611531      15.31522267
        15.09031808      15.08808918      15.08609971      15.08692688      15.08771221      15.08864844      15.08954455      15.09271179      15.09657035      15.09840449      15.09859360      15.09947021      15.10487249      15.12044266      15.14588084      15.17401658      15.19572108      15.20487557      15.20653335      15.19925599
        15.18996069      15.18296600      15.18133554      15.18753070      15.20013373      15.21405805      15.22415903      15.23598786      15.23935953      15.24424780      15.26464384      15.28208179      15.28786617      15.28858922      15.28549270      15.28162434      15.27499642      15.26873649      15.26604185      15.26469778
        15.26410582      15.26630125      15.26892679      15.27224549      15.27607089      15.27555691      15.26923979      15.25953051      15.24515998      15.22608128      15.20607140      15.18686823      15.16725546      15.15563589      15.15133941      15.15153853      15.15499376      15.15617192      15.15606229      15.15873980
        15.17376537      15.21099168      15.26461696      15.31936949      15.36816290      15.42384664      15.48770321      15.52734263      15.55382358      15.58260817      15.58912928      15.57473016      15.55764993      15.55639832      15.55942240      15.55385804      15.53548936      15.49624137      15.44087432      15.38828720
        15.34905915      15.32197458      15.30886807      15.30701026      15.30801998      15.30746049      15.30392021      15.29991344      15.30097308      15.32070561      15.36436287      15.40398276      15.42880554      15.45356668      15.48221140      15.49403314      15.48260167      15.45613688      15.42633950      15.40407809
        15.10934947      15.11018392      15.11252047      15.11191063      15.10955383      15.10885880      15.10991879      15.11061549      15.11063534      15.11300473      15.12251759      15.14775447      15.18245157      15.22088074      15.25226742      15.27279272      15.27569251      15.26571707      15.25219842      15.23970670
        15.23363125      15.23460581      15.24734555      15.26683740      15.28133525      15.29028605      15.29759247      15.30377856      15.30815261      15.31333037      15.31727872      15.31956190      15.31865505      15.31490140      15.30926618      15.30343194      15.29731376      15.29138944      15.28826230      15.28721328
        15.28784330      15.28960768      15.29297300      15.29754917      15.29914185      15.29681321      15.29296162      15.28954405      15.28424691      15.27510415      15.26203854      15.24836684      15.23538676      15.22373226      15.21258394      15.20172386      15.19250006      15.18887626      15.19548960      15.22231044
        15.27567533      15.34106440      15.40582110      15.46593910      15.52715489      15.59194414      15.65262271      15.68731851      15.71292854      15.73098234      15.73842405      15.73758302      15.73207573      15.73127611      15.72658997      15.70117972      15.66057643      15.60974692      15.55071889      15.49228937
        15.45176555      15.42568217      15.40526599      15.38476746      15.36988844      15.36212929      15.36330801      15.37692643      15.41805943      15.46948257      15.51732874      15.53894667      15.54653967      15.55651120      15.56253155      15.55804458      15.54314058      15.51987309      15.49536369      15.47952464
        15.14641895      15.15157726      15.15443590      15.14912945      15.14169593      15.13688035      15.13430883      15.13396281      15.14022416      15.15753047      15.19374381      15.23767949      15.27645589      15.30236817      15.31061343      15.30804253      15.29800665      15.28591035      15.27475955      15.26748222
        15.26737169      15.27540617      15.28858397      15.29942678      15.30563215      15.31064052      15.31539148      15.31959499      15.32348531      15.32618729      15.32711545      15.32653879      15.32497403      15.32248266      15.31860359      15.31410767      15.31042027      15.30810672      15.30810123      15.30910015
        15.31162529      15.31405987      15.31583487      15.31655447      15.31522577      15.31487073      15.31749364      15.32043755      15.32421693      15.32485776      15.31959952      15.31077120      15.30080756      15.28720015      15.26985497      15.25412885      15.24984906      15.26438179      15.29691998      15.34705413
        15.40551196      15.46034033      15.51782324      15.57941981      15.63697411      15.68366286      15.71647955      15.74494143      15.77304842      15.79155123      15.79996934      15.80254374      15.79916668      15.78869836      15.76964546      15.74365504      15.70882843      15.66299505      15.61153801      15.56198425
        15.52217927      15.49001624      15.46178259      15.43695546      15.42382029      15.43092247      15.46379479      15.51030304      15.56330638      15.59809961      15.61265859      15.61569901      15.61526245      15.61025449      15.60230874      15.59168672      15.57741489      15.56158812      15.54218582      15.52687651
        15.23284199      15.22849990      15.21676222      15.20585563      15.19793635      15.19462403      15.19490724      15.20571398      15.23035266      15.26614054      15.29622757      15.31582761      15.32769598      15.33039174      15.32443718      15.31425027      15.30206300      15.28966095      15.27990643      15.27534027
        15.27811298      15.28535419      15.29325692      15.30002246      15.30559001      15.31099048      15.31669780      15.32216150      15.32652886      15.32949557      15.33052079      15.33007356      15.32919102      15.32825571      15.32715418      15.32509109      15.32434497      15.32726415      15.33423875      15.34091857
        15.34395814      15.34345784      15.33978490      15.33710703      15.33832061      15.34280089      15.35014436      15.35732633      15.36556133      15.36959942      15.36707603      15.35994332      15.34963127      15.33988461      15.33382157      15.33767090      15.34922047      15.36955899      15.40026968      15.43654582
        15.47562315      15.52331026      15.57856128      15.62850700      15.67040899      15.70992224      15.74908674      15.78347459      15.80714367      15.81848601      15.82156807      15.82020325      15.81510687      15.80600024      15.79120579      15.77035080      15.74475651      15.71076466      15.66641725      15.61868769
        15.57513145      15.53965848      15.51675102      15.51754401      15.53851266      15.56952214      15.60927259      15.64651716      15.66595031      15.66992458      15.66421486      15.65573201      15.64915743      15.64123922      15.63066545      15.61852343      15.60418266      15.58967636      15.57706904      15.57132660
        15.32521829      15.30970503      15.28422267      15.27194128      15.27613958      15.28509166      15.29861271      15.32005973      15.34194642      15.35719910      15.35985397      15.35556769      15.34748935      15.33628233      15.32392988      15.31122476      15.29596614      15.28075109      15.26945104      15.26552186
        15.27056025      15.27921794      15.28826762      15.29660789      15.30367438      15.31036548      15.31744189      15.32383588      15.32886432      15.33224022      15.33377467      15.33429893      15.33463258      15.33521498      15.33687269      15.34068006      15.34873306      15.35882002      15.36805657      15.37334198
        15.37259224      15.36941258      15.36420361      15.36089771      15.36399665      15.37098062      15.38062980      15.39166669      15.40081920      15.40745346      15.41074927      15.41182135      15.41127298      15.41248265      15.41183904      15.41554384      15.41933804      15.42369287      15.43648114      15.46021492
        15.49567866      15.54292056      15.59383795      15.64098495      15.69036464      15.74098575      15.78359375      15.80996734      15.82389626      15.82975950      15.83148690      15.83127625      15.82973689      15.82506467      15.81631384      15.80085096      15.78013735      15.75453239      15.71957090      15.67718683
        15.63767823      15.61002408      15.61583246      15.64708615      15.68200598      15.70836739      15.72327441      15.72977423      15.72353245      15.71045358      15.69711233      15.68792179      15.67987037      15.67160494      15.66198101      15.65137382      15.64196531      15.64018149      15.65095069      15.66386390
        15.37662685      15.36685823      15.35294644      15.35405814      15.36456473      15.37534509      15.38640827      15.39539936      15.39607906      15.38948925      15.37976243      15.36674889      15.35209394      15.33692231      15.32086339      15.30348791      15.28500867      15.26779191      15.25547910      15.25376986
        15.26223274      15.27370870      15.28447679      15.29409574      15.30232874      15.31072291      15.31895682      15.32583428      15.33135786      15.33542654      15.33826317      15.34037889      15.34303022      15.34802176      15.35532544      15.36690829      15.37958446      15.38814242      15.39181979      15.39255743
        15.39036591      15.38679409      15.38454563      15.38375114      15.38850073      15.39909669      15.41588348      15.43367114      15.44651222      15.45470191      15.46084426      15.46518124      15.46468112      15.46241008      15.45634282      15.44771177      15.43991948      15.43584442      15.43925466      15.45664182
        15.49517139      15.54862464      15.60764507      15.66883526      15.72672078      15.77289777      15.80378433      15.82189267      15.83277940      15.83843857      15.84142487      15.84286961      15.84296345      15.84058572      15.83557228      15.82801038      15.81548267      15.79863269      15.77987047      15.75556252
        15.74295175      15.74077845      15.74511532      15.76085606      15.78167816      15.79155464      15.78791538      15.77426892      15.75861704      15.74262448      15.72944134      15.72047740      15.71131452      15.70580717      15.70211191      15.69919501      15.69952041      15.71001672      15.73183112      15.74476235
        15.40815110      15.40907091      15.41428664      15.42106102      15.42427903      15.42708703      15.42605344      15.42117378      15.41214308      15.39969460      15.38540305      15.36960840      15.35298593      15.33497147      15.31552542      15.29717871      15.27922211      15.25980746      15.24464396      15.24258935
        15.25255789      15.26703040      15.28085846      15.29344862      15.30482107      15.31532983      15.32406629      15.33091021      15.33675290      15.34207521      15.34638430      15.35064478      15.35688382      15.36760782      15.38018140      15.39220576      15.40021170      15.40400681      15.40519971      15.40556167
        15.40681616      15.40809469      15.41059792      15.41857266      15.43316597      15.45506518      15.47357118      15.48664139      15.49608312      15.49918233      15.49811074      15.49468389      15.48871723      15.48091165      15.47163844      15.46037566      15.44816004      15.43569916      15.42097979      15.42267001
        15.47753660      15.55661543      15.63424299      15.70197610      15.75441455      15.79250834      15.81816535      15.83393491      15.84308049      15.84909235      15.85335109      15.85547759      15.85578441      15.85446789      15.85322310      15.85401687      15.85478390      15.85604757      15.85736378      15.85683612
        15.85631697      15.86143102      15.85411995      15.84692041      15.84466793      15.83552458      15.82117350      15.80455172      15.78845842      15.77360893      15.75962212      15.74913005      15.74260153      15.74231320      15.74441010      15.74834579      15.75553615      15.76491170      15.77508002      15.77837275
        15.44793583      15.45280663      15.45887623      15.45914613      15.45593024      15.45113060      15.44425771      15.43422354      15.42109800      15.40583958      15.39039677      15.37403517      15.35541170      15.33594624      15.31666943      15.29745699      15.27649873      15.25387954      15.23195510      15.22782793
        15.22826170      15.21183697      15.21214041      15.23622552      15.25988767      15.28255071      15.30016980      15.31316567      15.32417832      15.33360225      15.34101853      15.34686765      15.35213775      15.35776417      15.36665961      15.37934951      15.39268692      15.40283541      15.41124988      15.41575205
        15.41811689      15.42056990      15.42496035      15.43237809      15.44161398      15.45746800      15.48141469      15.50681670      15.52813870      15.53669464      15.54060389      15.54075295      15.53592936      15.52892465      15.52013855      15.51022115      15.49903863      15.49054772      15.47891637      15.46073469
        15.41971171      15.30356575      15.28249147      15.30392159      15.07395861      15.11806108      15.39040495      15.56720156      15.66647790      15.73644940      15.78569590      15.81660625      15.83682845      15.85004029      15.85853000      15.86480101      15.86916971      15.87164286      15.87301150      15.87643610
        15.88333663      15.89646427      15.91045527      15.92348680      15.93098784      15.93722953      15.93221344      15.92567024      15.91725306      15.90086640      15.88013695      15.86261914      15.84660476      15.83164949      15.81708601      15.80452146      15.79286155      15.78708202      15.78661754      15.78823157
        15.78919396      15.79200330      15.79872406      15.80591606      15.80961663      15.81049977      15.47800284      15.47943545      15.47934829      15.47642713      15.47178381      15.46358861      15.45287726      15.44117323      15.42885608      15.41460962      15.39731857      15.37820665      15.35931568      15.34039411
        15.32096941      15.30038609      15.27876760      15.25363449      15.22704294      15.20376920      15.22405600      15.19435824      15.18276298      15.16318638      15.15041714      15.11422821      15.08831958      15.08334158      15.03814213      15.00749240      15.00524289      14.88919135      15.16639286      15.18459540
        15.10005454      15.12618684      15.04131054      15.07116689      15.00620554      15.05870688      15.10580505      15.15579373      15.14542396      15.09008115      15.03641737      15.00381833      15.06448468      15.05404166      15.11284587      15.09669803      15.16096049      15.13867694      15.03567297      15.06737960
        15.06537676      15.08165628      15.10659141      15.10254403      15.12108663      15.15014572      15.14153849      15.16322279      15.20722780      15.23238141      15.20110529      15.23164602      15.26294567      15.28936541      15.30757886      15.32207059      15.33416844      15.34389819      15.35157947      15.36045226
        15.37064465      15.38348841      15.39913477      15.41372395      15.42419560      15.43124315      15.43841461      15.44442070      15.45064782      15.45758803      15.47235712      15.49185534      15.51483587      15.54132313      15.56840248      15.58666820      15.59222369      15.59213190      15.58765057      15.58055556
        15.57332145      15.56655363      15.56029604      15.55120237      15.54482234      15.53699590      15.52807853      15.50727039      15.43405024      15.24880202      15.04052774      15.27284513      15.06410599      14.80161324      14.64715121      14.59518871      14.31394632      14.11877199      14.09913494      13.73490711
        13.48984243      13.48116109      12.52756740      14.72263145      14.95033766      14.24623720      14.49283356      13.78770553      14.04971892      13.51781321      13.96757423      14.36934747      14.81780111      14.64343506      14.20806401      13.76890306      13.50861112      14.02403680      13.94955288      14.44187539
        14.33429469      14.86732821      14.75191789      13.78830451      14.06728953      14.05942764      14.20579256      14.42749169      14.41126251      14.58705124      14.85673954      14.81985410      15.01829792      15.20099583      15.39216369      15.23906984      15.42328420      15.59423161      15.71546736      15.78823520
        15.83012350      15.85490256      15.87058129      15.87948216      15.88655538      15.89040107      15.89253324      15.89533416      15.90263388      15.91738811      15.93802798      15.95729106      15.97137071      15.97877133      15.97959697      15.97700229      15.97001500      15.95778758      15.94162195      15.92366489
        15.90268375      15.88324267      15.86784424      15.85503519      15.84259981      15.83320673      15.82824494      15.82745317      15.82948126      15.82990263      15.83054290      15.83130752      15.83418120      15.83629469      15.83645584      15.83724531      15.48787733      15.48693950      15.48484617      15.48136986
        15.47656013      15.46929986      15.45831980      15.44560234      15.43357553      15.42143258      15.40662150      15.38780245      15.36737063      15.34712268      15.32846096      15.30988516      15.28955762      15.26741027      15.23710413      15.19250227      15.19720211      15.23040602      15.23332843      15.24490414
        15.27736991      15.30057738      15.31812925      15.33211356      15.34396200      15.35520134      15.36976165      15.38670143      15.40453825      15.42167797      15.43702865      15.44758799      15.45472675      15.46379741      15.47586599      15.48962720      15.50438692      15.52354069      15.54834352      15.56976621
        15.59377453      15.61846602      15.63780834      15.64646954      15.64623570      15.64129592      15.63232245      15.62541458      15.61859918      15.61342556      15.61238385      15.61574573      15.62468025      15.63219500      15.63865118      15.63253222      15.58904590      15.46128375      15.19465493      15.25582119
        15.49552941      15.52207429      15.56127483      15.72259999      15.80631939      15.85490537      15.88018705      15.89531647      15.90425852      15.91065908      15.91711708      15.92100335      15.92376467      15.93440355      15.95500582      15.97726228      15.99545587      16.00506538      16.00986526      16.01049095
        16.00732291      16.00003622      15.98918124      15.97570033      15.95875052      15.93855545      15.91781468      15.89964605      15.88507212      15.87352480      15.86352650      15.85777817      15.85692629      15.85806653      15.86181504      15.86529567      15.86556637      15.86545788      15.86792088      15.87184351
        15.87426896      15.87453583      15.48967697      15.48851953      15.48630047      15.48318433      15.47885810      15.47244445      15.46335979      15.45255064      15.44194288      15.43022297      15.41540811      15.39910943      15.38226807      15.36433517      15.34629008      15.32984757      15.31313203      15.29766543
        15.28382443      15.27615730      15.28456840      15.30057223      15.31606169      15.32961684      15.34392426      15.35841769      15.37502058      15.39418895      15.41287761      15.42990288      15.44574062      15.46040709      15.47279632      15.48276847      15.49514646      15.51076258      15.53048361      15.55592825
        15.58968973      15.61534425      15.63646951      15.65865502      15.67584227      15.68478123      15.68772469      15.68941504      15.68793969      15.68376770      15.67873506      15.67340686      15.67310059      15.68440626      15.71110243      15.73591485      15.76043935      15.78033573      15.78438504      15.77116503
        15.75292588      15.75069333      15.79378344      15.84025475      15.87424247      15.89516577      15.90694767      15.91441400      15.92152168      15.92974414      15.93749221      15.94554365      15.95726219      15.97879184      16.00578854      16.02510997      16.03130343      16.03011050      16.02742220      16.02546845
        16.02288040      16.01813561      16.01037387      15.99710933      15.97895618      15.95892354      15.93900946      15.92097708      15.90756019      15.89667716      15.89437074      15.89732965      15.90060722      15.90777556      15.91797107      15.92409612      15.92553849      15.92857843      15.93139244      15.93643862
        15.93984236      15.93463855      15.49008776      15.48899788      15.48690918      15.48401274      15.48030346      15.47539170      15.46855925      15.45971875      15.45126861      15.44258429      15.43069336      15.41592111      15.40114810      15.38647671      15.37071611      15.35474254      15.33894641      15.32526670
        15.31491922      15.30976668      15.31193621      15.32122765      15.33300698      15.34685325      15.36131247      15.37516274      15.39071796      15.40738048      15.42367424      15.44060804      15.45989299      15.47875380      15.49500574      15.50859624      15.52442078      15.54952837      15.58452843      15.61889131
        15.64736021      15.66642818      15.68546662      15.70068216      15.71111379      15.71930967      15.72557093      15.72982159      15.73138416      15.72977047      15.72599318      15.72927734      15.74694287      15.77481148      15.80614359      15.82920580      15.85005889      15.86314654      15.86404741      15.85716017
        15.84978278      15.85160967      15.86533026      15.88364770      15.89886677      15.90865139      15.91559820      15.92232635      15.93167172      15.94284816      15.95608834      15.97227673      15.99430632      16.01832966      16.03951977      16.05064968      16.05228140      16.05072322      16.04813254      16.04625499
        16.04589308      16.04452583      16.03878931      16.02888322      16.01272356      15.99466484      15.98206504      15.97572767      15.96532819      15.96136952      15.97020533      15.99186491      16.01937179      16.03730233      16.03832382      16.03087749      16.02970968      16.03093620      16.02768494      16.02831963
        16.03053611      16.03416007      15.48971375      15.48888613      15.48719931      15.48476774      15.48176357      15.47753406      15.47099302      15.46302903      15.45584009      15.44819637      15.43782084      15.42514962      15.41184700      15.39840009      15.38463946      15.37073800      15.35677191      15.34323533
        15.33369187      15.33047022      15.33205928      15.33974016      15.35047266      15.36167249      15.37206643      15.38414656      15.39892025      15.41550913      15.43398215      15.45583132      15.47776480      15.49762369      15.51694245      15.53877149      15.56856717      15.60487255      15.63848461      15.66240483
        15.67838497      15.69159239      15.70409957      15.71569652      15.72730221      15.73877232      15.74888613      15.75586308      15.75853759      15.75904654      15.76309844      15.77783919      15.80397108      15.83142713      15.85400375      15.87049824      15.88071809      15.88400756      15.88318136      15.88075644
        15.87827217      15.87861820      15.88611310      15.89676087      15.90613715      15.91414348      15.92156907      15.93162146      15.94498062      15.96039619      15.97926336      16.00107950      16.02334374      16.04175434      16.05708658      16.06742774      16.07371648      16.07781563      16.08110077      16.08216377
        16.08367059      16.08360405      16.07972919      16.07300779      16.06751415      16.06368828      16.06511924      16.07603128      16.09388542      16.12560426      16.15178256      16.17027789      16.18776767      16.19195949      16.17767154      16.16120418      16.15481778      16.15085579      16.15057721      16.15455885
        16.16181624      16.17179112      15.48749027      15.48699193      15.48513439      15.48244010      15.47931996      15.47447142      15.46751310      15.46004610      15.45223652      15.44389066      15.43398322      15.42345043      15.41351951      15.40368152      15.39236583      15.37938235      15.36681366      15.35612976
        15.34846811      15.34616176      15.34778704      15.35328354      15.36135344      15.37002601      15.38024364      15.39228696      15.40735982      15.42640087      15.44981653      15.47585289      15.50007675      15.52609958      15.55346493      15.58043937      15.60780384      15.63294989      15.65341025      15.66951002