# File generated by Flopy version 3.5.0 on 02/09/2024 at 11:14:47.
BEGIN options
  BUDGET  FILEOUT  Reference.cbb
  HEAD  FILEOUT  Reference.hds
END options

BEGIN period  1
  SAVE  head  all
  SAVE  budget  all
  PRINT  head  last
END period  1

