# File generated by Flopy version 3.5.0 on 02/09/2024 at 11:14:47.
BEGIN options
END options

BEGIN griddata
  icelltype
    CONSTANT  0
  k
    INTERNAL  FACTOR  1.0
    3.62567498E-05  8.26330191E-05  1.63820047E-04  1.01924455E-04  1.60586336E-04  1.69575827E-04  1.92431307E-04  3.73294316E-04  2.93352823E-04  1.92708488E-04  2.44783982E-04  1.04417095E-04  8.73271916E-05  4.99909827E-05  3.55625622E-05  4.91984883E-05  9.78629415E-05  2.09883012E-04  4.79954159E-04  3.45081994E-04
    4.21703121E-04  3.49571166E-04  4.30216072E-04  6.02448762E-04  8.77811134E-04  7.74212971E-04  5.89657056E-04  3.71560893E-04  3.98486015E-04  1.92059425E-04  2.17636727E-04  1.63567196E-04  1.79535347E-04  2.55450834E-04  2.59124677E-04  2.01682028E-04  3.47070396E-04  5.97380584E-04  6.21372101E-04  4.57813714E-04
    5.42226149E-04  3.29014489E-04  1.62510277E-04  1.45675583E-04  1.91315879E-04  1.43163981E-04  1.44979626E-04  1.35429127E-04  1.45476159E-04  1.68277482E-04  1.64378941E-04  2.62630524E-04  3.35641420E-04  6.72081196E-04  5.09344303E-04  4.01817851E-04  3.52402227E-04  2.02874973E-04  9.40598183E-05  7.88467747E-05
    2.21868238E-04  1.78671681E-04  2.30730243E-04  3.57604893E-04  5.96471479E-04  6.16810364E-04       0.00110305  5.34946273E-04  5.54841055E-04  6.04514987E-04  6.40115552E-04  8.28199947E-04  7.60482776E-04  7.36773146E-04  6.35268211E-04  5.84890245E-04       0.00111869  5.21378513E-04  1.71257363E-04  2.30900277E-04
    2.29489883E-04  1.39651907E-04  1.75544994E-04  1.40522510E-04  1.29496841E-04  7.69279111E-05  7.93988135E-05  5.36193453E-05  4.43340084E-05  4.80575131E-05  2.55625678E-05  4.81832912E-05  4.67835132E-05  3.21993599E-05  1.84436062E-05  2.50312639E-05  2.11383541E-05  7.70801912E-05  9.25126690E-05  2.91425617E-04
    2.70014574E-05  5.05209692E-05  1.42486041E-04  1.39102707E-04  1.53715903E-04  2.33709532E-04  1.55623597E-04  3.48416252E-04  4.14557736E-04  2.49267780E-04  2.28197666E-04  1.05452098E-04  6.35192400E-05  7.96444399E-05  3.94854576E-05  3.69516116E-05  6.13477464E-05  9.89465400E-05  2.57320991E-04  2.75458287E-04
    3.05899906E-04  4.17232177E-04  3.46539697E-04  4.25999755E-04  5.68810684E-04  7.78093969E-04  5.11831702E-04  4.21957000E-04  4.60580173E-04  2.66744378E-04  1.87898240E-04  2.41309901E-04  1.49221513E-04  2.88213942E-04  2.61027176E-04  2.51706230E-04  3.94753962E-04  5.62650935E-04  5.50313776E-04  6.46939712E-04
    3.97213193E-04  5.25743989E-04  1.79930048E-04  1.44963253E-04  2.13000848E-04  1.86770754E-04  8.50495201E-05  1.65553788E-04  1.15973468E-04  2.46186994E-04  1.61204362E-04  2.65491332E-04  2.49334872E-04  4.53772269E-04  3.77986719E-04  3.42032900E-04  3.99956020E-04  3.38970257E-04  1.36566746E-04  9.20355801E-05
    1.47315950E-04  1.61762008E-04  1.89863304E-04  3.82983775E-04  7.27154536E-04  8.26775514E-04  7.16292085E-04       0.00114639  5.38704313E-04  5.87726734E-04  6.82797588E-04  9.53388147E-04  8.54907473E-04  8.66977277E-04  6.21153114E-04  6.21668017E-04  9.61214556E-04  6.77920372E-04  2.57777910E-04  2.18163308E-04
    2.59436517E-04  1.55821304E-04  1.59140038E-04  1.73866160E-04  1.29693632E-04  9.85389081E-05  8.57520499E-05  8.28896948E-05  4.07971060E-05  4.57839728E-05  2.54376358E-05  3.17682858E-05  4.23169002E-05  4.19743369E-05  2.61116858E-05  2.44332377E-05  1.86574816E-05  3.02724933E-05  9.41759029E-05  2.06217261E-04
    2.93244404E-05  5.28865329E-05  9.31123775E-05  1.25159145E-04  1.62425465E-04  2.56279015E-04  1.80414727E-04  2.74564038E-04  4.31793176E-04  3.47115476E-04  2.95130388E-04  1.28431400E-04  7.52890082E-05  7.64654893E-05  5.59031263E-05  2.84384143E-05  4.67295937E-05  5.25626370E-05  1.46671875E-04  1.89654267E-04
    2.29367936E-04  3.95171676E-04  3.45177614E-04  2.50924093E-04  4.06303148E-04  5.26696836E-04  5.63913218E-04  4.19783524E-04  5.41220132E-04  3.09903725E-04  2.05234323E-04  2.10228615E-04  2.35655472E-04  2.10175661E-04  2.54688667E-04  2.22953946E-04  5.49439914E-04  6.25765530E-04  6.05811548E-04  6.14553699E-04
    3.93048549E-04  4.51967204E-04  2.63172171E-04  1.32566398E-04  2.64263092E-04  1.97821225E-04  8.52600981E-05  1.55127075E-04  1.53659071E-04  1.90525551E-04  2.34027720E-04  1.86156994E-04  3.46191817E-04  2.74959830E-04  4.12001480E-04  2.72547193E-04  3.85716581E-04  3.67760106E-04  2.62832124E-04  9.24128676E-05
    1.29087153E-04  1.29109477E-04  1.97563851E-04  4.29030299E-04  8.10605411E-04  8.65207872E-04  5.61820554E-04       0.00116350  9.95773191E-04  4.55171678E-04  7.59458798E-04  8.06473463E-04       0.00114620  9.40988723E-04  6.90919467E-04  4.91649969E-04  8.23306387E-04  7.14782720E-04  4.85284202E-04  2.18725760E-04
    2.54721657E-04  1.88725832E-04  1.46321798E-04  2.42979243E-04  1.35745972E-04  8.53597793E-05  1.18043310E-04  1.13226434E-04  5.98953063E-05  4.30853686E-05  3.21150771E-05  2.68988313E-05  4.16935845E-05  3.90909356E-05  3.96597876E-05  1.87108825E-05  2.28035943E-05  2.25841751E-05  9.05111902E-05  1.46747688E-04
    3.96569208E-05  5.43068233E-05  6.62031870E-05  6.72072232E-05  1.55302591E-04  2.47643815E-04  2.49093453E-04  1.95550052E-04  3.66811005E-04  4.87713933E-04  4.07932647E-04  1.37346503E-04  1.01926962E-04  6.20546813E-05  7.55244175E-05  4.01966133E-05  3.76473192E-05  4.19020277E-05  6.55741534E-05  1.25123641E-04
    1.81596673E-04  2.59460894E-04  3.23185343E-04  2.53320681E-04  3.40593184E-04  4.57796743E-04  4.98567816E-04  3.41809215E-04  5.20915778E-04  3.87662698E-04  2.60065880E-04  2.16565223E-04  2.93329521E-04  2.30817948E-04  2.18192685E-04  2.46440247E-04  4.38549559E-04  6.99484946E-04  5.27299831E-04  6.72890260E-04
    4.78083469E-04  3.98828026E-04  2.75622111E-04  1.35422463E-04  2.03389430E-04  2.35470049E-04  8.73224331E-05  1.05293044E-04  2.25748227E-04  1.95291251E-04  2.87455533E-04  2.04976777E-04  2.87694050E-04  2.28289806E-04  3.74755468E-04  3.80788791E-04  2.92947893E-04  3.17213450E-04  2.91883074E-04  2.06059176E-04
    1.47378392E-04  1.45700940E-04  1.41852545E-04  4.23310550E-04  6.91396061E-04       0.00137433  6.25948258E-04  9.13451282E-04       0.00153994  5.85019645E-04  6.40651124E-04  8.75713959E-04  6.50432337E-04       0.00109803  8.54032351E-04  6.60669429E-04  5.89210645E-04  7.88695078E-04  4.44794142E-04  3.58562081E-04
    1.79069703E-04  2.56467390E-04  1.04427776E-04  2.51647935E-04  1.78979118E-04  1.20981025E-04  1.14666702E-04  1.29810189E-04  6.43581833E-05  5.00384298E-05  4.05648746E-05  4.74036614E-05  3.50966018E-05  3.80923347E-05  4.84514137E-05  2.34099752E-05  2.14755503E-05  2.78913328E-05  4.96645582E-05  1.81058932E-04
    3.57634960E-05  6.30806152E-05  7.52710047E-05  5.13432381E-05  8.32275469E-05  2.06216463E-04  1.94186787E-04  1.99377126E-04  2.39570865E-04  5.33462298E-04  4.79909225E-04  2.12908278E-04  1.18283283E-04  8.14807852E-05  4.70538111E-05  5.56845849E-05  3.11482351E-05  5.77536292E-05  3.97192229E-05  7.59549589E-05
    1.10818192E-04  1.78660191E-04  2.64158801E-04  3.72593969E-04  2.86213693E-04  4.06989099E-04  3.24419598E-04  3.89500228E-04  6.00915200E-04  5.19296040E-04  2.83569819E-04  3.25015420E-04  2.63179582E-04  3.87952675E-04  1.60957786E-04  2.52970232E-04  4.07293908E-04  8.24599519E-04  6.04455154E-04  6.56058165E-04
    3.89937459E-04  3.24801201E-04  3.06384677E-04  1.50219168E-04  1.39130278E-04  1.73317378E-04  1.08842016E-04  8.91244875E-05  2.61924691E-04  1.96314924E-04  2.20300546E-04  2.38311100E-04  2.54174123E-04  2.68372184E-04  3.23261576E-04  4.07934241E-04  3.29988364E-04  2.59566120E-04  2.38736686E-04  3.16530052E-04
    2.00836800E-04  1.94117486E-04  2.17564162E-04  3.42137597E-04  7.12225952E-04       0.00127128  9.86179790E-04  8.63713138E-04       0.00206666  7.45295961E-04  6.20301806E-04  9.43139575E-04  5.82664943E-04  9.44719504E-04       0.00103488  7.04319763E-04  5.75322221E-04  7.44105503E-04  5.30157568E-04  3.97233550E-04
    1.59166072E-04  2.20303358E-04  1.65940247E-04  1.37140859E-04  2.28141844E-04  1.08058124E-04  1.13693853E-04  1.33168670E-04  9.97725020E-05  4.98498923E-05  5.84411756E-05  6.12612557E-05  5.14828128E-05  3.26509784E-05  4.44350353E-05  2.43384636E-05  2.88284802E-05  4.13255100E-05  4.72075957E-05  1.31089777E-04
    4.78731323E-05  4.81405064E-05  7.84615048E-05  3.72916809E-05  6.97559184E-05  1.35677903E-04  1.61157972E-04  1.57274171E-04  1.98187652E-04  3.74480341E-04  6.91953400E-04  2.19066229E-04  1.19349602E-04  9.00555499E-05  4.63576273E-05  6.12840495E-05  4.41200035E-05  3.72811875E-05  4.56205610E-05  4.02908781E-05
    8.06251931E-05  9.67892337E-05  1.76902659E-04  3.54866482E-04  5.02130349E-04  3.83998477E-04  2.71015124E-04  2.60273429E-04  5.94950822E-04  7.32939101E-04  4.61628180E-04  4.11907085E-04  3.04675247E-04  5.20945489E-04  2.53359840E-04  2.25032353E-04  5.14909089E-04  4.75901256E-04  8.17196451E-04  6.98050347E-04
    4.77469157E-04  2.45524346E-04  3.13229583E-04  1.45282135E-04  1.48309050E-04  9.10515076E-05  1.16358698E-04  7.81830876E-05  1.86052088E-04  2.59350395E-04  2.26564949E-04  2.27877968E-04  2.61376057E-04  2.21799959E-04  2.89621630E-04  3.40581352E-04  3.79037500E-04  2.34332129E-04  2.27607472E-04  3.32965757E-04
    3.29518320E-04  2.30703270E-04  3.56286963E-04  2.64305098E-04  7.19393237E-04       0.00129429       0.00153664       0.00105699       0.00202726       0.00120486  7.00381781E-04  8.66093568E-04  7.04529996E-04  6.59209647E-04  9.76641126E-04       0.00106321  7.85689164E-04  7.31823601E-04  7.20538197E-04  3.44131479E-04
    1.71215276E-04  1.45275018E-04  2.39949541E-04  1.15091961E-04  2.06662426E-04  1.22589000E-04  1.00296005E-04  1.14032034E-04  1.21316292E-04  6.18540804E-05  6.69860101E-05  8.62598278E-05  7.31281669E-05  3.66999693E-05  3.50452009E-05  3.01852729E-05  3.06271298E-05  5.93476318E-05  4.72684933E-05  7.50398860E-05
    4.64014014E-05  6.11949937E-05  7.15000189E-05  4.54997541E-05  5.78891761E-05  8.83013554E-05  1.12437809E-04  1.42226182E-04  1.64951229E-04  3.00818272E-04  5.68529000E-04  2.79089654E-04  1.33902890E-04  9.97708748E-05  5.16505802E-05  6.23568039E-05  5.20145629E-05  2.65697166E-05  4.08621578E-05  3.78695701E-05
    5.32400707E-05  8.08119035E-05  8.95885202E-05  2.59952451E-04  4.60947085E-04  4.08590509E-04  2.27909139E-04  2.65688412E-04  4.26654106E-04       0.00116038  6.20164458E-04  5.28186385E-04  3.32464047E-04  6.00577952E-04  4.99121865E-04  2.84649934E-04  5.01887442E-04  4.61976635E-04  7.20635909E-04  9.46429716E-04
    5.28849274E-04  2.71261864E-04  2.08582056E-04  1.95962846E-04  1.42852481E-04  9.04838589E-05  7.56023802E-05  1.15282706E-04  1.04722574E-04  3.37899139E-04  1.90027439E-04  2.28725447E-04  2.59689683E-04  2.52010029E-04  2.35985167E-04  3.32633437E-04  2.57097919E-04  3.20987924E-04  1.96485871E-04  3.29652013E-04
    3.39421467E-04  2.72959597E-04  4.15638357E-04  4.76339957E-04  4.95241733E-04       0.00161720       0.00137516       0.00138274       0.00157969       0.00202569  7.88727471E-04  8.92226806E-04  8.24530944E-04  8.29605754E-04  7.39023105E-04       0.00125326  9.32969958E-04  8.66121996E-04  9.86786843E-04  4.71017434E-04
    2.23206404E-04  1.17039085E-04  1.96578052E-04  1.82441196E-04  1.49531575E-04  1.41976458E-04  7.84194972E-05  9.14527264E-05  1.79661444E-04  1.17796888E-04  6.45651198E-05  1.09984426E-04  7.62327934E-05  4.77878457E-05  3.94943279E-05  3.25583782E-05  2.76340416E-05  6.21891585E-05  5.84046008E-05  6.71729441E-05
    3.59098331E-05  8.39793816E-05  5.92423925E-05  5.41504230E-05  4.84340622E-05  8.05288265E-05  9.75567470E-05  1.46398012E-04  1.39721739E-04  2.59096414E-04  4.07823881E-04  3.12185590E-04  1.51291531E-04  1.00754173E-04  7.43001948E-05  7.84342510E-05  7.17996942E-05  2.89828103E-05  2.10908878E-05  3.72422961E-05
    4.77125092E-05  7.22356945E-05  6.49946353E-05  1.23475377E-04  2.67413061E-04  4.18160834E-04  2.56868109E-04  2.63106003E-04  3.22313378E-04  7.25772808E-04       0.00101453  6.41093762E-04  4.63184541E-04  4.95527667E-04  9.63045438E-04  4.38088836E-04  5.98325496E-04  4.26359234E-04  4.59355846E-04  7.99664513E-04
    7.65634881E-04  4.24991925E-04  2.47791717E-04  1.87339439E-04  1.33698473E-04  1.06306937E-04  6.81639945E-05  1.13762960E-04  1.06504572E-04  2.42042185E-04  3.13477044E-04  2.35375123E-04  3.15506394E-04  2.41921867E-04  1.88796067E-04  2.42199172E-04  3.07437245E-04  3.69204785E-04  2.20874874E-04  2.56546714E-04
    3.87692121E-04  2.83853601E-04  4.71855130E-04  5.94436826E-04  4.06600518E-04       0.00123395       0.00168762       0.00138397       0.00167848       0.00158811       0.00126393  8.07087932E-04  8.75235504E-04  8.37926902E-04  7.18947982E-04       0.00102314       0.00205273  8.72656399E-04       0.00113939  5.65608317E-04
    3.60918723E-04  1.46222270E-04  1.85799768E-04  1.76748634E-04  1.54562608E-04  1.52850074E-04  1.25637188E-04  7.28935915E-05  2.23670505E-04  1.72028135E-04  8.63415801E-05  1.25036071E-04  1.10102167E-04  4.93763387E-05  6.08050307E-05  4.10646787E-05  3.96810838E-05  3.50328873E-05  4.58982753E-05  6.48308471E-05
    3.34505618E-05  5.65190101E-05  7.73172510E-05  5.36314476E-05  6.96379086E-05  6.42546773E-05  8.56370762E-05  1.28367438E-04  1.58244968E-04  1.77222670E-04  3.82403066E-04  2.47921018E-04  2.13853167E-04  1.42694035E-04  1.22300453E-04  8.51340627E-05  7.33167179E-05  3.62019747E-05  2.13902173E-05  3.62963551E-05
    5.82356373E-05  5.50104644E-05  7.04933386E-05  5.63395185E-05  1.41029310E-04  2.66731391E-04  2.59794126E-04  2.44342767E-04  4.69240265E-04  3.60731667E-04       0.00115231  5.97886226E-04  6.00386854E-04  5.49375859E-04       0.00110757  6.20020373E-04  6.88603715E-04  4.16310711E-04  4.41186407E-04  6.00937823E-04
    6.46673395E-04  5.29239313E-04  3.36783894E-04  2.15867781E-04  1.72471256E-04  1.12236636E-04  7.27687036E-05  1.04479581E-04  1.62998253E-04  1.86977205E-04  3.86372254E-04  2.41132015E-04  3.13988237E-04  3.99247702E-04  2.10923776E-04  1.82662211E-04  3.27105136E-04  4.60289710E-04  3.12626793E-04  2.53908825E-04
    2.87436261E-04  3.09749316E-04  4.52458649E-04  8.48091223E-04  6.19341271E-04  7.02943115E-04       0.00104888       0.00137099       0.00173128       0.00150247       0.00131621  8.24551785E-04  7.44772424E-04       0.00109673  7.05275621E-04  8.34959861E-04       0.00218733       0.00109329  9.62596002E-04  9.74836179E-04
    4.50120360E-04  2.79214428E-04  1.75558938E-04  2.10285505E-04  1.46952883E-04  1.51702368E-04  1.48421176E-04  1.26703281E-04  1.90027919E-04  4.00998468E-04  1.21745152E-04  1.45878710E-04  1.26401265E-04  7.24881132E-05  6.67879431E-05  8.28853728E-05  4.89885268E-05  3.41090707E-05  2.73689983E-05  7.74492143E-05
    4.08302829E-05  5.20529245E-05  5.74357598E-05  4.41296461E-05  6.63273096E-05  8.40210804E-05  8.15484102E-05  1.60461764E-04  1.13237326E-04  1.37080080E-04  2.63863854E-04  2.88676115E-04  1.87811151E-04  2.39189058E-04  1.33033138E-04  1.68580123E-04  7.11572743E-05  5.38767211E-05  2.59366870E-05  3.64698401E-05
    6.45213193E-05  6.81318907E-05  5.56241663E-05  4.42475089E-05  6.20055486E-05  2.15273946E-04  2.78840317E-04  2.57358475E-04  3.81138039E-04  3.01659267E-04  6.46372137E-04  8.43534047E-04  6.06475940E-04  9.70296055E-04  8.21095398E-04  8.95957273E-04  6.54095932E-04  4.55788557E-04  3.08926985E-04  4.86371144E-04
    4.48213436E-04  7.84317266E-04  3.59934666E-04  2.75849377E-04  2.06578815E-04  1.23785269E-04  8.08233349E-05  1.07525954E-04  1.68182777E-04  2.27314814E-04  3.15226113E-04  3.69045306E-04  3.03473252E-04  5.32772308E-04  2.88796972E-04  1.83995710E-04  2.81388263E-04  6.06092677E-04  4.36466503E-04  3.67583748E-04
    3.04434379E-04  3.50207302E-04  4.16849785E-04  7.63217558E-04  9.12471456E-04  5.76457587E-04  6.42969347E-04       0.00133832       0.00174951       0.00166983       0.00116174  7.71209687E-04  6.77894023E-04       0.00101998  7.85693650E-04  7.70962247E-04       0.00188010       0.00149700  7.46736814E-04       0.00107355
    6.63135577E-04  3.83554655E-04  2.05644105E-04  2.63550451E-04  1.50420233E-04  1.52266470E-04  1.94307972E-04  2.46146542E-04  1.76261885E-04  4.46510597E-04  2.19004190E-04  1.83429487E-04  1.90769826E-04  1.01523732E-04  8.31218225E-05  1.24302716E-04  8.35774553E-05  4.19776828E-05  2.45849083E-05  5.51834053E-05
    4.39812952E-05  4.89089458E-05  5.24984794E-05  4.21411795E-05  5.98683544E-05  8.73578506E-05  8.77681004E-05  1.25135561E-04  9.69350514E-05  1.05986550E-04  1.65327042E-04  2.88273758E-04  2.22107827E-04  2.60113563E-04  1.76295641E-04  1.73058675E-04  9.53342496E-05  5.78360881E-05  4.96382920E-05  3.59579696E-05
    8.39680221E-05  7.08860936E-05  5.44701350E-05  4.11456664E-05  4.39973292E-05  1.21846778E-04  3.09606482E-04  2.29925194E-04  3.75170396E-04  3.67858195E-04  4.45800560E-04  8.68168932E-04  7.06236587E-04       0.00107683       0.00105925  7.90143456E-04  7.56201060E-04  4.72626930E-04  3.00803412E-04  3.65185462E-04
    4.14388850E-04  6.15760889E-04  4.22890457E-04  2.22019488E-04  3.03740316E-04  1.53689656E-04  1.07855610E-04  9.36460697E-05  1.99390389E-04  2.37319473E-04  2.39660636E-04  3.15535197E-04  3.79413087E-04  4.25229453E-04  6.86036922E-04  2.52489698E-04  2.96128321E-04  4.52657635E-04  5.08329498E-04  4.89462694E-04
    6.75362804E-04  3.20019946E-04  5.08368110E-04  4.94932217E-04       0.00122222  7.58710435E-04  5.15222015E-04  8.54424025E-04       0.00209748       0.00144352       0.00164528  7.14390123E-04  6.74814106E-04  7.99009529E-04       0.00130024  7.74136873E-04       0.00140367       0.00120806  6.51037011E-04  8.98968408E-04
         0.00137999  5.09115170E-04  2.37714934E-04  2.66312696E-04  1.81477730E-04  1.63033095E-04  2.18118324E-04  2.93840555E-04  2.70242936E-04  3.09575615E-04  4.67963098E-04  2.72173004E-04  2.09464552E-04  1.12868283E-04  1.14981300E-04  1.36636824E-04  1.64240714E-04  5.69525261E-05  3.14267305E-05  5.91427394E-05
    3.23145056E-05  4.46153722E-05  6.32278692E-05  4.00703230E-05  5.21782097E-05  7.11239713E-05  1.04029719E-04  1.07105893E-04  9.30937340E-05  7.63656758E-05  1.08298709E-04  2.12741397E-04  2.89667049E-04  2.07523880E-04  2.02279828E-04  1.08567214E-04  1.47317714E-04  9.41141128E-05  8.20114918E-05  3.60095241E-05
    6.03201816E-05  6.77115171E-05  5.94193947E-05  4.69659234E-05  4.66748451E-05  9.20707700E-05  2.24199501E-04  2.74967253E-04  3.10366124E-04  3.82519464E-04  3.74679764E-04  9.25654727E-04       0.00104042       0.00133167       0.00112149  7.59645059E-04  7.94648906E-04  6.92293553E-04  2.81047391E-04  3.18769591E-04
    3.10649007E-04  5.62283271E-04  5.49242772E-04  2.46935591E-04  2.58159256E-04  2.23669577E-04  1.11991178E-04  1.23667112E-04  1.77703778E-04  2.26220071E-04  1.70115557E-04  2.81235746E-04  4.42568962E-04  4.75641455E-04  6.19430620E-04  4.10272627E-04  3.08934025E-04  4.72246854E-04  4.03824454E-04  6.38072460E-04
         0.00107389  5.75096314E-04  5.17621930E-04  4.35383108E-04  6.49375324E-04       0.00110199  5.05858888E-04       0.00103917       0.00230381       0.00130563       0.00159633       0.00118681  6.08014381E-04  8.85941431E-04       0.00111444       0.00121801       0.00116541       0.00137926  5.84706092E-04  7.32356187E-04
         0.00109110       0.00105898  3.04604538E-04  3.43770204E-04  1.93117415E-04  1.82660501E-04  2.44934083E-04  3.76686621E-04  3.62672822E-04  2.13189144E-04  4.30677461E-04  4.99734745E-04  2.27045399E-04  1.56085588E-04  1.08188377E-04  1.31348949E-04  2.44956820E-04  1.25601858E-04  3.53745002E-05  7.22643964E-05
    1.94530343E-05  4.14506556E-05  5.79980421E-05  5.43185013E-05  6.46334884E-05  7.90460032E-05  7.03182706E-05  9.67390505E-05  6.86484031E-05  8.63457328E-05  9.58527229E-05  1.34733339E-04  2.77404963E-04  2.16587987E-04  1.80831838E-04  1.00341807E-04  1.00855956E-04  1.28634184E-04  1.07613913E-04  5.99897823E-05
    4.04839374E-05  6.10214726E-05  4.62499901E-05  5.00218597E-05  5.99399700E-05  1.10545997E-04  1.13421505E-04  2.44320456E-04  2.68741012E-04  4.65439936E-04  4.95941931E-04  7.76071178E-04       0.00116137       0.00169104  9.46841910E-04  9.96638250E-04  8.09022727E-04  8.16466956E-04  4.02362007E-04  3.91554400E-04
    3.20812438E-04  4.32089660E-04  4.22881455E-04  2.97921229E-04  3.00493157E-04  3.27809350E-04  1.57998066E-04  1.42142701E-04  1.61738013E-04  2.01736066E-04  1.51333660E-04  2.05909035E-04  4.09190849E-04  5.71989039E-04  5.52971064E-04  6.27062519E-04  3.61222222E-04  3.74493363E-04  3.96173251E-04  6.13022463E-04
         0.00127491  9.36600598E-04  4.89143588E-04  3.92820715E-04  5.08262356E-04       0.00110348  7.04738234E-04  8.55101218E-04       0.00221011       0.00140589       0.00146496       0.00194001  9.00914974E-04  9.06195401E-04       0.00106865       0.00163172       0.00114811       0.00106936  7.87029317E-04  6.57439832E-04
    9.62181291E-04       0.00140007  5.93822558E-04  3.78077751E-04  3.70771798E-04  1.54414095E-04  3.25135120E-04  3.04757622E-04  5.00920447E-04  2.26262824E-04  4.02935688E-04  6.08192729E-04  2.85442320E-04  1.25072670E-04  1.33070414E-04  1.02143085E-04  2.58142628E-04  2.50044085E-04  6.88967580E-05  6.70672742E-05
    2.28635696E-05  3.19381494E-05  6.92746298E-05  5.17483594E-05  8.30623977E-05  7.25453371E-05  7.01468847E-05  8.29734458E-05  8.36675182E-05  8.23452238E-05  1.13212475E-04  7.59886120E-05  2.80798401E-04  1.91776437E-04  1.55313358E-04  1.12845925E-04  9.51686063E-05  1.24505971E-04  1.45843011E-04  5.74551957E-05
    4.03328036E-05  4.34487772E-05  4.78528690E-05  4.32074651E-05  7.20960313E-05  1.10479372E-04  1.19744573E-04  1.54770019E-04  2.88279302E-04  3.10893948E-04  6.24252866E-04  6.30253958E-04       0.00133432       0.00175019       0.00100235  8.78041872E-04       0.00118198  7.18446702E-04  6.67322938E-04  3.26598064E-04
    4.80067472E-04  3.98109230E-04  4.08493973E-04  3.09489721E-04  4.40954226E-04  3.10365584E-04  3.00821423E-04  1.50730926E-04  1.76001999E-04  1.65600278E-04  1.52586724E-04  2.16740642E-04  4.97223687E-04  5.53548669E-04  5.68269499E-04  5.22705579E-04  4.80110605E-04  3.33316816E-04  4.80418818E-04  5.95827683E-04
         0.00123092       0.00101936  5.57742829E-04  3.32057229E-04  3.89599757E-04  7.87323043E-04       0.00100272  8.83759137E-04       0.00172133       0.00186141       0.00113665       0.00222883       0.00148889       0.00102342       0.00102326       0.00153342       0.00115848       0.00106082       0.00105767  7.51097981E-04
    8.84869051E-04       0.00107735       0.00105964  5.59957904E-04  6.76670566E-04  2.47760223E-04  3.35928844E-04  3.53580169E-04  5.23744599E-04  3.47365432E-04  2.60810176E-04  6.54052990E-04  3.27112108E-04  1.47443107E-04  1.69524198E-04  1.16415398E-04  1.53462842E-04  3.71994469E-04  1.38637661E-04  7.89089192E-05
    2.90277677E-05  2.51342537E-05  6.24093852E-05  6.68377799E-05  7.90987717E-05  9.15402791E-05  6.65716348E-05  6.36972548E-05  8.32378656E-05  1.09943058E-04  1.20455892E-04  8.16048883E-05  1.83575291E-04  2.55059375E-04  1.26972551E-04  1.45569709E-04  1.00852454E-04  1.15807480E-04  1.06318993E-04  7.25261019E-05
    4.62083769E-05  5.10115581E-05  4.41584183E-05  4.91143435E-05  5.18959662E-05  1.19757984E-04  1.18508435E-04  1.38685580E-04  2.58038407E-04  2.90445147E-04  4.80671801E-04  8.35546700E-04  8.44959907E-04       0.00143073  8.48359636E-04  7.70080998E-04       0.00153643  8.91848436E-04  6.75277450E-04  4.09435037E-04
    4.35533544E-04  5.30047731E-04  3.65497731E-04  3.04696659E-04  4.27490820E-04  4.61638755E-04  4.03482984E-04  2.49831245E-04  1.45380993E-04  1.90728904E-04  1.46569951E-04  3.31126441E-04  5.35479648E-04  5.66525931E-04  5.43969717E-04  5.58610064E-04  7.08890570E-04  4.92710599E-04  3.59083374E-04  7.02671439E-04
    8.51076143E-04       0.00101957  6.12011153E-04  3.65096433E-04  2.78298506E-04  8.63239335E-04  8.65644866E-04       0.00117974  8.68104465E-04       0.00187092       0.00123764       0.00230042       0.00186828       0.00126898  8.65391311E-04       0.00140353       0.00108379  8.78468416E-04  9.17613310E-04  9.03903921E-04
    9.86969966E-04       0.00118985       0.00138569  7.93627265E-04  6.95204188E-04  7.17638260E-04  3.40220134E-04  4.77376247E-04  4.86783742E-04  5.43189523E-04  2.60202127E-04  7.17616959E-04  3.65003736E-04  1.73580917E-04  1.69890529E-04  1.86678759E-04  1.57811164E-04  2.88447030E-04  2.28860422E-04  1.23061684E-04
    2.59392574E-05  2.38575696E-05  3.93372138E-05  7.77765461E-05  6.51558116E-05  8.38045292E-05  6.35690471E-05  7.22571399E-05  8.71909173E-05  1.41297920E-04  1.08942072E-04  9.05085628E-05  1.21049340E-04  3.40404900E-04  1.50537436E-04  1.35972335E-04  1.22309834E-04  1.30058632E-04  8.94819710E-05  9.29773352E-05
    4.46391644E-05  5.77288104E-05  5.34016109E-05  6.01621216E-05  5.54531844E-05  1.04656316E-04  1.16042414E-04  1.67369761E-04  2.98174859E-04  2.59651444E-04  2.98869364E-04  6.42085977E-04  8.14192689E-04       0.00112662  8.61295511E-04  5.14442132E-04       0.00141259       0.00102470  7.78844513E-04  5.00798106E-04
    2.95911591E-04  4.48253021E-04  5.08666119E-04  3.57852018E-04  4.80443910E-04  4.35247567E-04  3.61038421E-04  3.40407271E-04  1.80614537E-04  1.81637816E-04  2.39866649E-04  3.33127326E-04  9.14933102E-04  6.69030218E-04  6.22478785E-04  4.06333905E-04  8.72135296E-04  8.26398035E-04  5.40200466E-04  6.82695818E-04
    6.86624750E-04  6.85398454E-04  7.55474505E-04  4.31239031E-04  3.30208192E-04  6.19175020E-04  7.03999907E-04       0.00116422       0.00110120       0.00115177       0.00210519       0.00123736       0.00229269       0.00129969  8.76087604E-04  8.25290911E-04       0.00118356  5.76434763E-04       0.00116136  8.24619125E-04
    9.53545595E-04  9.59334590E-04       0.00149189       0.00115996  8.50951192E-04       0.00111301  6.21052035E-04  5.09591887E-04  6.87235883E-04  5.74813222E-04  3.37286615E-04  4.43243372E-04  6.07516123E-04  2.56199213E-04  2.36187524E-04  2.10344324E-04  2.66747907E-04  1.92965667E-04  3.29572829E-04  1.95344813E-04
    2.66670263E-05  2.64025925E-05  2.72345542E-05  4.48851071E-05  8.27875075E-05  5.53354017E-05  8.00074592E-05  7.44762092E-05  7.62023945E-05  1.15024563E-04  1.38517203E-04  8.80878574E-05  1.34083998E-04  2.44234536E-04  2.28774755E-04  1.40154023E-04  1.37915357E-04  1.12832254E-04  7.70383228E-05  9.10897184E-05
    7.64103080E-05  6.77584146E-05  8.08303231E-05  5.69675972E-05  7.03742622E-05  8.66635287E-05  1.48891345E-04  1.75949272E-04  3.25974181E-04  2.89509692E-04  3.38686718E-04  3.78139185E-04  7.83436368E-04  7.70628457E-04  7.19181294E-04  5.17555144E-04       0.00101516       0.00108441  8.26656039E-04  6.12675292E-04
    3.14515601E-04  3.41801161E-04  4.29888837E-04  3.94397127E-04  4.67646416E-04  4.53076764E-04  3.70922679E-04  3.47849988E-04  2.22888928E-04  1.79887999E-04  3.63302742E-04  3.86611119E-04  9.90205572E-04  8.98360509E-04  6.82871852E-04  5.77681594E-04  7.98908651E-04       0.00132016  6.87739181E-04  6.68900182E-04
    5.70312090E-04  6.29315659E-04  6.38812889E-04  5.43853306E-04  4.14002688E-04  6.45155584E-04  7.58397863E-04  8.01048242E-04       0.00123489  9.17747639E-04       0.00250837       0.00124675       0.00183061       0.00155045  7.56389059E-04  6.74701387E-04  9.19535183E-04  4.94602473E-04  7.10228787E-04  9.86236358E-04
    8.65859545E-04       0.00109319       0.00102283       0.00165731  9.13497066E-04       0.00127232       0.00113821  5.88501449E-04  6.89416650E-04  6.97717843E-04  3.77387418E-04  4.79173848E-04  7.46464065E-04  4.22425560E-04  2.51622144E-04  2.43016140E-04  3.09733216E-04  2.91855033E-04  2.79338942E-04  4.65780593E-04
    1.81326536E-05  3.19374392E-05  2.31595673E-05  3.23637169E-05  6.62149197E-05  4.41069412E-05  5.97104027E-05  1.15978776E-04  7.96730121E-05  1.19473640E-04  1.07864512E-04  9.30723215E-05  1.32536571E-04  2.06769524E-04  1.92456026E-04  1.86226909E-04  1.05994422E-04  1.56859843E-04  7.68283365E-05  7.70778696E-05
    9.08997863E-05  6.83405156E-05  9.60140051E-05  9.40743969E-05  7.71928660E-05  9.40640701E-05  1.47732882E-04  2.14731464E-04  3.06211069E-04  3.75791474E-04  3.42271274E-04  3.41161114E-04  4.67262351E-04  8.94367004E-04  5.88036691E-04  7.50251101E-04  6.16488222E-04       0.00113948  7.81872113E-04  6.99355698E-04
    3.58052729E-04  3.64902307E-04  3.15830665E-04  5.23815827E-04  4.30068834E-04  4.93511770E-04  3.25008366E-04  2.84456910E-04  2.66626895E-04  2.61959377E-04  3.25909459E-04  6.36440008E-04  7.24455932E-04       0.00141448  7.81439706E-04  8.54402157E-04  6.28639106E-04       0.00146371  6.78905747E-04  7.74078134E-04
    5.66098475E-04  6.27292572E-04  5.78026601E-04  5.05834039E-04  4.53490129E-04  5.80011196E-04  8.46751168E-04  6.63601384E-04       0.00137335       0.00118310       0.00217158       0.00170708       0.00105113       0.00159935  8.33138062E-04  6.05796361E-04  7.27835662E-04  5.87175204E-04  4.16645191E-04       0.00104981
         0.00102847  8.92437407E-04  7.89422801E-04       0.00138962       0.00152801       0.00134804       0.00167249  7.05075172E-04  7.43782617E-04  6.56637556E-04  4.21335721E-04  4.72533748E-04  7.68987672E-04  6.30275942E-04  3.77298691E-04  2.53492178E-04  3.15860770E-04  3.52185322E-04  2.55263000E-04  7.75882841E-04
    1.43973635E-05  2.49535708E-05  2.92826643E-05  2.87591881E-05  5.64238155E-05  4.76627893E-05  4.71323791E-05  1.24597513E-04  1.04381635E-04  9.76669167E-05  1.12026529E-04  1.02986574E-04  1.43725014E-04  1.88985889E-04  1.59406459E-04  1.39456787E-04  1.12730502E-04  1.45219156E-04  1.22639818E-04  4.76205466E-05