# File generated by Flopy version 3.5.0 on 01/31/2024 at 14:08:39.
BEGIN options
END options

BEGIN griddata
  icelltype
    CONSTANT  0
  k
    INTERNAL  FACTOR  1.0
    1.23831461E-04  1.10168764E-04  1.57509722E-04  8.97684569E-05  2.10542062E-04  1.96728979E-04  2.46212551E-04  2.28528732E-04  3.48929631E-04  7.64289099E-04       0.00106793  9.75763766E-04  9.78358058E-04  8.41711458E-04  7.34516481E-04  9.09056524E-04  2.92511305E-04  1.32740132E-04  1.14591789E-04  1.67993129E-04
    4.07348293E-04  3.01421654E-04  3.81799197E-04  3.33444346E-04  4.37737376E-04  5.23141448E-04  3.61288450E-04  3.68181575E-04  7.39748790E-04  5.41411379E-04  8.19039224E-04       0.00111489  4.96421645E-04  2.68262588E-04  1.10527538E-04  9.72630592E-05  7.19949001E-05  7.53228910E-05  7.44764336E-05  6.62509947E-05
    1.41000933E-04  2.03632530E-04  1.14018124E-04  7.10339046E-05  4.26614535E-05  2.35900028E-05  5.71311009E-05  7.42654348E-05  8.03792369E-05  4.24150728E-05  3.12589256E-05  8.57404376E-05  2.61128740E-05  2.06940348E-05  1.49723367E-05  3.07623570E-05  5.61607962E-05  1.55312455E-04  6.61375761E-05  9.99509847E-05
    9.73234235E-05  1.16675353E-04  1.19139413E-04  1.49243880E-04  1.51533058E-04  1.06631521E-04  1.49273494E-04  1.28283931E-04  5.69338006E-05  9.41899948E-05  1.67835200E-04  2.39148445E-04  1.82105382E-04  1.83542238E-04  1.44124200E-04  1.85656521E-04  1.83448524E-04  2.35766830E-04  1.83744988E-04  3.30102207E-04
    2.94489536E-04  2.25191746E-04  3.88453804E-04  8.38522818E-04       0.00136528       0.00156480       0.00202381       0.00126307  9.46264930E-04  8.56558064E-04  8.11183485E-04  6.59856893E-04  6.68988339E-04  9.37841421E-04       0.00107879       0.00164603  7.68081824E-04  8.80324185E-04  7.51313887E-04       0.00145943
    1.15624158E-04  1.74855643E-04  1.18178200E-04  1.12240595E-04  1.30108213E-04  2.14120938E-04  2.04252677E-04  3.20588882E-04  2.32520378E-04  6.49228349E-04  7.24281240E-04       0.00122947  9.63579449E-04       0.00119426  7.15495780E-04  9.25382667E-04  5.11564813E-04  1.58560052E-04  1.27672049E-04  1.55843544E-04
    3.30516932E-04  3.82887975E-04  3.93374408E-04  4.35725346E-04  3.86696575E-04  3.97131195E-04  3.05800518E-04  3.59487920E-04  5.34431253E-04  6.20635361E-04  5.72423543E-04       0.00120865  7.36009375E-04  2.79918003E-04  1.42695032E-04  1.16924310E-04  9.46275727E-05  6.77307115E-05  9.36980318E-05  6.29920549E-05
    8.92048079E-05  1.37389116E-04  1.28501321E-04  8.81438267E-05  5.18838114E-05  2.23669024E-05  3.42142260E-05  6.49545571E-05  7.50664858E-05  9.37367093E-05  3.36210602E-05  8.14828668E-05  3.46169632E-05  2.08605029E-05  2.51487021E-05  3.36686303E-05  4.13003304E-05  1.09904175E-04  8.53263876E-05  7.85528829E-05
    1.17508374E-04  9.54880287E-05  1.43863330E-04  1.57425466E-04  1.91690251E-04  1.14500913E-04  1.05044499E-04  1.49551833E-04  7.79630638E-05  9.17779686E-05  1.31954143E-04  1.69650025E-04  1.71924791E-04  1.70350651E-04  2.35479230E-04  2.09679148E-04  1.48196969E-04  2.02146384E-04  2.08923034E-04  2.10113002E-04
    4.59670628E-04  1.99456247E-04  3.46736302E-04  7.24414530E-04       0.00106722       0.00153496       0.00206774       0.00118005       0.00141837       0.00118459       0.00110591  7.47492067E-04  4.90832461E-04  7.83970403E-04       0.00124201       0.00182025       0.00138814  9.96613937E-04       0.00103438       0.00115140
    1.26585357E-04  2.65939426E-04  1.30763121E-04  9.31359935E-05  9.35612410E-05  1.66226331E-04  2.54235591E-04  3.94082035E-04  2.73238927E-04  3.33438086E-04  4.98316544E-04       0.00104869       0.00115558  7.97145713E-04       0.00110578  7.46866331E-04       0.00106738  2.46957161E-04  1.37122636E-04  1.47208301E-04
    2.73070140E-04  3.64780408E-04  5.93502946E-04  4.78298414E-04  4.22450173E-04  3.61345908E-04  3.24638538E-04  3.27485854E-04  4.40546253E-04  4.22234307E-04  6.42263790E-04  9.31591005E-04       0.00141438  3.06876037E-04  2.17420476E-04  1.20645325E-04  1.43583948E-04  6.63403995E-05  8.29338161E-05  5.84842899E-05
    8.16041945E-05  9.54253162E-05  1.42151140E-04  8.57906652E-05  4.88983386E-05  2.75384970E-05  2.65300646E-05  4.62515874E-05  6.09365342E-05  7.91512582E-05  6.10818322E-05  7.90261732E-05  5.33750176E-05  1.83888567E-05  3.12002328E-05  3.35066952E-05  4.47332728E-05  6.22031426E-05  9.43339754E-05  6.99266496E-05
    1.57344883E-04  1.28285288E-04  1.57355335E-04  1.22542230E-04  1.50401861E-04  1.73725301E-04  1.20714383E-04  1.68016514E-04  1.23445675E-04  7.87331046E-05  1.15100663E-04  1.39607955E-04  1.53375016E-04  1.50677460E-04  2.45941170E-04  2.62853788E-04  2.03031836E-04  1.91579425E-04  1.83999085E-04  1.49476592E-04
    3.87172743E-04  2.99183946E-04  2.55579923E-04  6.42496602E-04  6.49263085E-04       0.00135861       0.00201805       0.00153732       0.00133180       0.00134643       0.00112135       0.00128474  3.73827334E-04  6.00628529E-04  9.77244423E-04       0.00204034       0.00248702       0.00158898  9.46962088E-04       0.00102077
    8.81916453E-05  2.87760239E-04  2.01277749E-04  1.23828760E-04  1.00870787E-04  1.47480924E-04  1.93260996E-04  4.47289830E-04  3.72716959E-04  2.68907561E-04  3.20365879E-04  6.87381722E-04       0.00111524  8.68311412E-04       0.00119376  8.81117943E-04  9.72848211E-04  5.00965248E-04  1.37994122E-04  2.49366264E-04
    2.02924062E-04  3.20463637E-04  6.43108573E-04  7.55329264E-04  4.07729914E-04  3.66998039E-04  2.02258369E-04  3.59746441E-04  4.30714217E-04  3.97141193E-04  6.65051313E-04  6.80913670E-04       0.00116813  7.14963917E-04  2.50040533E-04  1.89114453E-04  1.17877330E-04  8.86687044E-05  7.17706105E-05  9.05243480E-05
    5.94164746E-05  9.09078741E-05  9.24088730E-05  1.06073015E-04  4.19743582E-05  4.23207186E-05  2.26972044E-05  4.03666956E-05  5.58064066E-05  6.48760187E-05  6.14821613E-05  7.16604412E-05  5.65201687E-05  3.11944898E-05  2.89965588E-05  4.02369555E-05  4.51853138E-05  4.00075969E-05  7.47589191E-05  9.32284562E-05
    1.14986353E-04  1.92951114E-04  1.47325909E-04  1.31953494E-04  1.27980488E-04  2.03260262E-04  1.41125223E-04  1.77560942E-04  1.57829473E-04  9.35535497E-05  8.53055784E-05  1.13814980E-04  1.48041304E-04  1.81471795E-04  2.37797224E-04  2.92652854E-04  2.04983772E-04  1.94984731E-04  1.76794449E-04  1.61241279E-04
    2.47054336E-04  4.63371083E-04  2.38384032E-04  5.54492472E-04  5.63167658E-04  8.06861279E-04       0.00134988       0.00209310       0.00155618       0.00179041       0.00104086       0.00143703  4.31998786E-04  3.87816049E-04  7.35010778E-04       0.00195967       0.00280998       0.00217428       0.00125687       0.00100929
    8.95161432E-05  2.26390273E-04  2.87471091E-04  1.55266244E-04  1.32235603E-04  1.64069045E-04  2.35403017E-04  4.37240355E-04  4.54058746E-04  2.60227895E-04  3.15942844E-04  4.96235587E-04  9.27427347E-04  8.49446351E-04       0.00103115       0.00136015       0.00110096  8.73378488E-04  2.14566088E-04  2.56291509E-04
    2.48627425E-04  2.69795455E-04  5.42464723E-04  7.43375891E-04  5.15713558E-04  3.67701013E-04  2.28434943E-04  2.68788367E-04  3.97851350E-04  2.70593075E-04  5.72701588E-04  6.11320696E-04  8.53440890E-04       0.00118173  3.63962579E-04  2.86217517E-04  1.22816542E-04  7.69689990E-05  6.60271392E-05  8.71803166E-05
    7.06505532E-05  9.71004672E-05  8.87222586E-05  9.62721278E-05  5.09061610E-05  4.19812374E-05  3.96426522E-05  2.88993129E-05  5.64169885E-05  5.25267374E-05  6.27318392E-05  7.09870606E-05  7.55107691E-05  3.97844954E-05  3.24859109E-05  2.93241729E-05  5.98193897E-05  3.60090365E-05  6.17203903E-05  9.52765655E-05
    1.16065537E-04  1.77694816E-04  1.80811629E-04  1.07029905E-04  1.40871027E-04  1.30190361E-04  1.87302168E-04  1.61946293E-04  2.07518383E-04  1.02731629E-04  7.84024646E-05  7.74973338E-05  1.73896813E-04  1.30277315E-04  2.42700729E-04  2.48429109E-04  2.27945439E-04  2.22231692E-04  2.34096115E-04  1.48908432E-04
    2.01104997E-04  3.36480354E-04  3.80017469E-04  4.60574182E-04  6.51832943E-04  5.28600417E-04       0.00108310       0.00213469       0.00254120       0.00181152       0.00111955  9.72321277E-04  7.27601885E-04  3.03498868E-04  6.96142397E-04       0.00148150       0.00285335       0.00207859       0.00179839  8.05481707E-04
    1.22515873E-04  1.22956879E-04  3.19344733E-04  2.34238452E-04  2.40838198E-04  1.86816248E-04  3.78728383E-04  3.30206715E-04  5.17536385E-04  2.73247407E-04  3.66432782E-04  5.06408795E-04  8.99435322E-04  8.76914203E-04       0.00127437       0.00146609       0.00141526       0.00100437  4.90757452E-04  2.97082573E-04
    4.42846782E-04  2.67806716E-04  4.53209322E-04  5.12602984E-04  5.71163953E-04  3.74367411E-04  3.25036797E-04  1.99212647E-04  3.26650975E-04  2.44345008E-04  3.40259436E-04  5.79812701E-04  5.89799717E-04       0.00121261  5.66647012E-04  3.16016115E-04  1.41086623E-04  6.64367349E-05  5.07004971E-05  8.76922833E-05
    1.02483814E-04  8.86524874E-05  8.08331580E-05  7.94746625E-05  6.06136352E-05  5.28725301E-05  6.75086689E-05  3.44359474E-05  4.91975580E-05  5.86656492E-05  5.22653018E-05  8.03250445E-05  7.43472102E-05  5.15956000E-05  4.50033719E-05  3.07500097E-05  6.05528807E-05  5.67232564E-05  4.17445050E-05  1.14177749E-04
    1.14134040E-04  1.33718640E-04  1.70243296E-04  1.19954517E-04  1.40462680E-04  1.64722637E-04  1.31809267E-04  1.35461679E-04  1.54460876E-04  1.30333209E-04  7.20705798E-05  7.58711214E-05  1.34564458E-04  1.20569696E-04  1.60721216E-04  2.67395430E-04  1.62430213E-04  2.18018606E-04  1.97728702E-04  2.32819129E-04
    2.00412623E-04  2.41435210E-04  3.86786357E-04  5.56512934E-04  5.48413099E-04  7.58930300E-04  7.27609473E-04       0.00176735       0.00302696       0.00233388       0.00164570       0.00106679  6.28719108E-04  3.57677749E-04  5.84755433E-04       0.00140808       0.00233788       0.00177928       0.00189961       0.00129261
    8.22158299E-05  1.26076596E-04  2.18098254E-04  3.45541913E-04  2.62724848E-04  2.77679729E-04  4.28268461E-04  4.65191693E-04  4.64619292E-04  3.84657846E-04  2.89146365E-04  7.41853790E-04  8.58033330E-04       0.00110081       0.00128860       0.00152908       0.00196026       0.00175746  8.84138628E-04  5.73655293E-04
    4.42540078E-04  3.71663511E-04  4.29558742E-04  4.45792137E-04  4.51288173E-04  4.89384505E-04  3.71597336E-04  3.43238759E-04  2.27380620E-04  2.14242242E-04  1.49002846E-04  4.51817103E-04  5.28014710E-04       0.00131649  7.15273712E-04  2.91302226E-04  1.39319869E-04  7.87359628E-05  3.51012935E-05  6.03632577E-05
    9.70831712E-05  9.48991968E-05  9.77045372E-05  8.41929192E-05  5.76983417E-05  5.87329531E-05  6.46937967E-05  6.50599161E-05  5.60463991E-05  5.62636761E-05  4.46736223E-05  8.85018764E-05  9.14492962E-05  7.34311529E-05  4.88211741E-05  3.44034265E-05  5.43827329E-05  9.79580510E-05  4.78958370E-05  1.24758238E-04
    1.18436844E-04  1.16996296E-04  1.74486037E-04  1.55912284E-04  1.11870183E-04  1.64707428E-04  1.05516963E-04  1.38625803E-04  1.46107539E-04  1.20081262E-04  7.24255645E-05  6.62467222E-05  1.01851927E-04  1.26684529E-04  8.93386988E-05  1.81938624E-04  1.40507206E-04  1.87499398E-04  1.95760705E-04  2.46109797E-04
    2.00720291E-04  1.76419208E-04  3.42484908E-04  5.75372303E-04  5.05659273E-04  7.61536015E-04  9.65935199E-04       0.00152294       0.00362651       0.00165194       0.00203056       0.00131448  7.95514213E-04  4.62038602E-04  6.21602769E-04  9.98297021E-04       0.00237526       0.00146239       0.00218407       0.00178938
    4.84938836E-05  1.15848380E-04  1.56193966E-04  2.89259043E-04  4.17608864E-04  3.84834677E-04  4.62086032E-04  4.55832702E-04  3.60996443E-04  4.40130941E-04  4.29022579E-04  6.69789384E-04       0.00110562       0.00115991       0.00166287       0.00142932       0.00244436       0.00214411       0.00151184       0.00120595
    7.18709291E-04  4.09439147E-04  4.47967691E-04  3.66688023E-04  6.13088171E-04  5.65220611E-04  3.77018018E-04  4.37374077E-04  2.70155197E-04  1.97997279E-04  1.79737053E-04  2.09459095E-04  5.24072645E-04  8.88039301E-04  9.43696813E-04  2.86644414E-04  1.50679410E-04  6.68311676E-05  4.92562045E-05  3.52504628E-05
    9.72999460E-05  6.47967187E-05  9.46909075E-05  8.04891384E-05  7.99740109E-05  5.39782442E-05  6.50685144E-05  6.34813428E-05  9.34888879E-05  5.71146048E-05  5.80188598E-05  5.63005634E-05  9.20441982E-05  7.61045169E-05  6.59957249E-05  4.79647929E-05  6.81179920E-05  8.83854325E-05  7.58213855E-05  1.13672978E-04
    1.71742584E-04  1.04623936E-04  1.53262136E-04  2.00242603E-04  1.63257667E-04  1.30503680E-04  1.33461382E-04  1.05755392E-04  1.42298763E-04  1.17896803E-04  8.70330204E-05  5.96789558E-05  7.46949228E-05  1.14530198E-04  8.87676363E-05  1.24012080E-04  1.07726046E-04  1.08359724E-04  1.62756528E-04  2.09240900E-04
    2.39225393E-04  1.66340876E-04  2.94337631E-04  4.60113122E-04  4.71574267E-04  5.36649234E-04       0.00131399       0.00120957       0.00306917       0.00170430       0.00174771       0.00185756       0.00103883  5.27309772E-04  5.70348297E-04  8.62788131E-04       0.00178136       0.00178013       0.00199641       0.00287894
    3.79359057E-05  1.01264034E-04  1.52049529E-04  1.95385899E-04  3.77082105E-04  4.02152809E-04  5.37075506E-04  5.77585722E-04  3.42912499E-04  3.75746774E-04  5.28206167E-04  6.47191680E-04       0.00127041       0.00129830       0.00139726       0.00157775       0.00222962       0.00355135       0.00222288       0.00189848
    9.70519147E-04  4.76990057E-04  3.81567781E-04  4.19140277E-04  6.97804627E-04  9.30952300E-04  3.89612987E-04  5.17699871E-04  3.75238570E-04  2.25841546E-04  1.89639885E-04  1.73187497E-04  4.26891752E-04  8.14272791E-04  8.28911323E-04  4.14236839E-04  1.52692204E-04  7.49178561E-05  6.55606984E-05  3.19848025E-05
    5.95062901E-05  5.36875521E-05  6.36430057E-05  1.27357339E-04  9.13390545E-05  5.79033015E-05  5.05358494E-05  5.37737789E-05  9.49067739E-05  8.03278621E-05  5.47211333E-05  6.81540839E-05  6.35362570E-05  8.47632118E-05  6.50776788E-05  5.76551163E-05  6.03946950E-05  9.06222603E-05  8.76170882E-05  1.43338749E-04
    2.01875090E-04  1.51889192E-04  1.15039714E-04  2.30408361E-04  2.03528594E-04  1.30997659E-04  1.41965213E-04  1.37371195E-04  1.26326841E-04  1.77089954E-04  7.69597971E-05  8.11421054E-05  5.14108773E-05  9.44411302E-05  1.00208635E-04  1.10841154E-04  7.23098179E-05  9.52359344E-05  1.17597952E-04  1.98289330E-04
    2.20307563E-04  1.43423881E-04  2.50933778E-04  4.35084186E-04  3.47292057E-04  4.54402411E-04       0.00104008       0.00136841       0.00181735       0.00214034       0.00100540       0.00208511       0.00106532  7.97079725E-04  5.15271131E-04  7.85023787E-04  9.85001448E-04       0.00266177       0.00181124       0.00326695
    3.81139141E-05  9.03323369E-05  1.39856335E-04  1.91906369E-04  2.63082097E-04  4.68652555E-04  4.68234345E-04  6.52197875E-04  4.19212527E-04  3.27939368E-04  4.46453285E-04  9.11845509E-04       0.00101810       0.00166073       0.00121244       0.00179875       0.00196681       0.00387487       0.00223970       0.00249922
         0.00131987  6.52580749E-04  3.57290624E-04  4.48932076E-04  6.17760626E-04       0.00135736  4.61781636E-04  4.60778041E-04  5.16078449E-04  3.39073338E-04  2.59603788E-04  2.40456781E-04  2.81947040E-04  6.13527908E-04  7.17552145E-04  4.98172424E-04  2.46464296E-04  9.55498858E-05  7.61654785E-05  4.77733322E-05
    4.66856002E-05  4.62131174E-05  4.11200560E-05  1.17549847E-04  1.09973759E-04  7.14248918E-05  5.11217040E-05  5.29052608E-05  7.94528480E-05  7.98477996E-05  5.77933761E-05  9.03712955E-05  5.25825366E-05  5.84311272E-05  7.22542793E-05  5.09642693E-05  7.12051346E-05  7.38107549E-05  7.92594057E-05  1.36026898E-04
    2.32815567E-04  1.96780322E-04  1.49429108E-04  1.36081570E-04  2.30532398E-04  1.74039088E-04  2.07286204E-04  1.96502532E-04  1.09712312E-04  1.35642335E-04  1.05186172E-04  9.19482083E-05  7.54895535E-05  6.22837590E-05  1.30589277E-04  8.97698152E-05  9.04219312E-05  6.68138804E-05  9.60099834E-05  1.22698805E-04
    3.12063519E-04  1.33170203E-04  3.13363151E-04  3.26086785E-04  2.55023813E-04  3.45615088E-04  7.93295150E-04       0.00130098       0.00123470       0.00142561       0.00118613       0.00171119       0.00134520  7.69830132E-04  4.86427586E-04  4.95519792E-04  9.01285334E-04       0.00200724       0.00262768       0.00210536
    4.87065017E-05  6.13320556E-05  1.50354457E-04  1.81478145E-04  2.69318002E-04  3.26863400E-04  4.06515870E-04  4.87408040E-04  9.44182576E-04  4.05241643E-04  4.11121727E-04  7.63300808E-04  9.65304286E-04       0.00154669       0.00164793       0.00137564       0.00289203       0.00284517       0.00279101       0.00262308
         0.00153794  5.64597230E-04  4.65251246E-04  4.02524869E-04  7.88830949E-04       0.00106655  6.01763762E-04  3.99596252E-04  7.58618591E-04  4.56604643E-04  4.04210452E-04  2.35081395E-04  2.54981306E-04  3.92401389E-04  8.85777238E-04  5.18812140E-04  3.86143088E-04  1.21948858E-04  9.79618783E-05  7.66545272E-05
    3.98568746E-05  3.62252788E-05  4.01997295E-05  9.72575687E-05  1.54940864E-04  8.50726898E-05  4.12186100E-05  5.27876328E-05  8.31147862E-05  7.45558628E-05  6.67173250E-05  8.92266741E-05  7.56033795E-05  5.33440965E-05  7.00973457E-05  3.84163950E-05  5.07409883E-05  5.74892506E-05  8.29545149E-05  1.46169526E-04
    1.93797916E-04  2.09910869E-04  2.06147740E-04  1.21939038E-04  1.76496536E-04  1.92771862E-04  2.05433530E-04  3.30645763E-04  1.45654061E-04  1.02107228E-04  1.27745561E-04  7.67658426E-05  1.05326745E-04  6.57190794E-05  1.25201169E-04  8.02939869E-05  8.55914579E-05  7.55014328E-05  1.15088203E-04  1.00301131E-04
    2.42241013E-04  1.71666199E-04  2.36869022E-04  4.27110813E-04  1.99335656E-04  2.88208731E-04  4.44738261E-04       0.00132378       0.00123719       0.00107017       0.00100582       0.00117039       0.00139095       0.00108439  5.57998242E-04  4.26700779E-04  6.34255847E-04       0.00120416       0.00290856       0.00192204
    5.53726472E-05  6.33131875E-05  9.00673898E-05  1.72223176E-04  2.95502338E-04  3.32202558E-04  3.59790039E-04  3.85612599E-04  7.77369417E-04  7.53975739E-04  4.35698369E-04  8.39625807E-04  9.22085216E-04       0.00131291       0.00197414       0.00186173       0.00328415       0.00286439       0.00186784       0.00283793
         0.00193530  8.87130574E-04  5.03884307E-04  3.70101145E-04  6.82815297E-04  9.45214825E-04  6.22552358E-04  4.82793524E-04  6.02782984E-04  6.61736377E-04  6.24162982E-04  3.60146622E-04  2.35788840E-04  2.22781355E-04  5.36067896E-04  8.89762635E-04  3.93217759E-04  2.16419364E-04  9.06744307E-05  1.26908672E-04
    4.51731208E-05  3.86622231E-05  3.01830688E-05  7.84276333E-05  1.13428760E-04  1.39014905E-04  4.60815106E-05  5.39283578E-05  7.34162201E-05  8.17449134E-05  7.90260835E-05  1.12044196E-04  8.73265095E-05  6.72595798E-05  5.00796922E-05  4.60762001E-05  3.28488480E-05  6.35830031E-05  6.80595125E-05  1.47168500E-04
    1.37313048E-04  2.16092519E-04  1.81463194E-04  1.83235141E-04  1.42768681E-04  2.35140059E-04  2.14171912E-04  3.44406603E-04  1.79373266E-04  7.97662993E-05  1.09277969E-04  9.44608011E-05  1.08318472E-04  8.07513450E-05  9.70009616E-05  8.54708809E-05  6.41985890E-05  1.04829569E-04  1.12162262E-04  1.09670973E-04
    1.45175147E-04  2.58563601E-04  1.82586076E-04  5.42709937E-04  1.93904562E-04  2.21008661E-04  3.17650676E-04  7.85434095E-04       0.00138475       0.00102357  9.99102654E-04       0.00104771       0.00147394       0.00128718  7.77959053E-04  4.16733908E-04  5.27459244E-04  7.87157978E-04       0.00188497       0.00222623
    8.05443830E-05  5.94393242E-05  5.42549195E-05  1.38381334E-04  2.74280107E-04  2.82277753E-04  2.97954864E-04  3.60676593E-04  6.12779161E-04       0.00114935  5.34073755E-04  7.51329708E-04  9.80577996E-04       0.00103510       0.00227092       0.00272864       0.00337247       0.00354923       0.00189185       0.00251484
         0.00286796       0.00107514  7.55455887E-04  3.61367101E-04  5.21994381E-04  7.40867293E-04  8.01709162E-04  5.82838070E-04  7.12833251E-04  6.29348547E-04  7.39494513E-04  4.21147379E-04  3.03268257E-04  1.86572781E-04  3.41329274E-04       0.00102123  4.64187650E-04  2.53532157E-04  1.06257313E-04  1.12324089E-04
    7.56738540E-05  2.93521879E-05  3.36929506E-05  5.82617401E-05  8.99192635E-05  1.22319184E-04  7.95181374E-05  3.26919762E-05  8.67839077E-05  7.07097071E-05  1.06416021E-04  1.49475100E-04  1.13716551E-04  8.58995244E-05  5.99486885E-05  3.76046223E-05  2.87666824E-05  4.61082806E-05  8.14947911E-05  1.34392250E-04
    1.52460875E-04  1.49589727E-04  2.04909753E-04  1.85807305E-04  2.24221175E-04  2.20778439E-04  2.72913507E-04  1.77486093E-04  2.72896715E-04  8.55593857E-05  9.34359196E-05  1.08819382E-04  1.01677360E-04  6.96869804E-05  8.70909417E-05  7.03869643E-05  5.61236970E-05  1.14046179E-04  1.25531773E-04  1.54699602E-04
    1.23121253E-04  1.68710357E-04  1.72061288E-04  3.28372189E-04  3.10765619E-04  1.90099412E-04  3.05639227E-04  3.78899327E-04       0.00133154  9.04198968E-04       0.00120343       0.00106079       0.00138400       0.00143492       0.00149343  6.17695964E-04  5.21962197E-04  5.46876778E-04  9.31599140E-04       0.00224760
    1.38794419E-04  5.00851541E-05  5.02110893E-05  8.01080627E-05  2.33711717E-04  2.62340078E-04  2.60933363E-04  3.01712166E-04  5.15105356E-04  7.99160276E-04  6.82702175E-04  7.07874291E-04       0.00106413  9.54399831E-04       0.00208794       0.00324582       0.00440655       0.00339267       0.00240019       0.00205291
         0.00374036       0.00159518       0.00149213  4.94861655E-04  3.52653376E-04  4.69686666E-04  8.02823988E-04  8.72369935E-04  9.38424102E-04  6.30504690E-04  7.39915014E-04  6.21768283E-04  3.66812304E-04  2.71909135E-04  2.12073653E-04  6.39410874E-04  6.21190709E-04  3.10063464E-04  1.46331320E-04  8.50772333E-05
    8.82938370E-05  3.20225315E-05  3.88083307E-05  4.39647207E-05  5.70083877E-05  7.23858464E-05  9.68691837E-05  3.76768457E-05  8.14498894E-05  7.71401035E-05  8.46592100E-05  2.14635359E-04  1.24207591E-04  1.08377234E-04  6.48505521E-05  3.58590000E-05  3.63317173E-05  4.17369986E-05  7.67270704E-05  1.18992200E-04
    1.23668491E-04  1.27977287E-04  2.51977996E-04  2.07285104E-04  3.10812940E-04  2.77951098E-04  2.83996282E-04  1.80692381E-04  1.93621011E-04  1.33099897E-04  5.98730029E-05  1.33433341E-04  1.00892414E-04  8.65830323E-05  5.96119995E-05  6.94431703E-05  4.49721043E-05  1.37037175E-04  1.05800110E-04  1.81099188E-04
    1.15386074E-04  1.28481820E-04  1.73858194E-04  2.19162187E-04  2.71646103E-04  1.97165284E-04  1.97297984E-04  3.87461388E-04  7.29234288E-04  7.53220889E-04  9.31042553E-04       0.00191052       0.00148193       0.00215742       0.00132400       0.00114665  4.97562334E-04  6.06792724E-04  5.85608048E-04       0.00174609
    1.79960502E-04  7.09652309E-05  3.56931054E-05  6.35558196E-05  1.38045666E-04  2.92548266E-04  1.90290878E-04  2.86481651E-04  3.61322771E-04  7.17141282E-04  7.00629228E-04  7.05680200E-04  6.44583718E-04       0.00106530       0.00147324       0.00333186       0.00502460       0.00333779       0.00283622       0.00317354
         0.00299568       0.00253841       0.00133333  9.54161411E-04  3.69654029E-04  4.26826627E-04  4.69283413E-04       0.00128594  8.78561977E-04       0.00109109  7.02568517E-04  8.18325636E-04  3.63468514E-04  4.70741867E-04  2.50017085E-04  4.87648042E-04  6.21729543E-04  3.51844929E-04  1.92969092E-04  9.55375499E-05
    6.83003134E-05  3.82278417E-05  3.51408170E-05  5.02086636E-05  5.17562150E-05  5.43967456E-05  5.59539538E-05  4.09582059E-05  4.90880738E-05  1.25398818E-04  8.04885937E-05  1.81617372E-04  1.41745801E-04  1.07289850E-04  7.75605893E-05  4.09791806E-05  4.32565046E-05  3.02162370E-05  5.65882674E-05  1.04278405E-04
    1.38702661E-04  1.16226173E-04  2.31320160E-04  2.56222973E-04  3.84485811E-04  3.65953045E-04  2.31186895E-04  1.91156873E-04  1.35864665E-04  2.45787001E-04  8.02661604E-05  9.95016088E-05  1.03844891E-04  7.35690836E-05  6.40465315E-05  8.21384313E-05  4.76033313E-05  9.91069732E-05  1.44092350E-04  1.56460547E-04
    1.77476998E-04  8.31658590E-05  1.41601621E-04  1.58042255E-04  2.24084146E-04  2.07373400E-04  1.50362117E-04  2.75011563E-04  5.67830889E-04  5.79055403E-04  6.98762805E-04       0.00188729       0.00197486       0.00212655       0.00162909       0.00161919  7.70638142E-04  4.66596026E-04  6.85993740E-04  8.70277758E-04
    2.01389091E-04  1.21821461E-04  4.34463182E-05  5.20013072E-05  9.24462334E-05  1.92198132E-04  2.95528086E-04  2.83402113E-04  3.31215515E-04  3.79141153E-04  6.17560898E-04  6.11068846E-04  7.07946028E-04  7.33104523E-04       0.00144223       0.00190364       0.00565196       0.00345862       0.00300404       0.00330647
         0.00264494       0.00344294       0.00173318       0.00108939  5.31913506E-04  3.32179825E-04  3.36107837E-04  9.56485590E-04  9.39409180E-04       0.00114947       0.00108707  9.04243541E-04  7.66893476E-04  4.32633095E-04  4.01565258E-04  3.28238790E-04  6.55485704E-04  4.42140429E-04  2.94181982E-04  1.07179136E-04
    7.76162071E-05  3.86930720E-05  3.96321119E-05  5.19854110E-05  5.00876595E-05  4.34086860E-05  4.36353130E-05  4.05896977E-05  4.36004705E-05  9.84163730E-05  1.13704350E-04  1.07479786E-04  1.82886066E-04  7.72955435E-05  8.53055342E-05  4.00461449E-05  6.16377059E-05  3.02297817E-05  3.77146058E-05  5.40868377E-05
    1.43648769E-04  1.20745141E-04  1.81383874E-04  2.85326417E-04  3.41399598E-04  4.25342522E-04  2.61047101E-04  1.83309653E-04  1.33435289E-04  2.02559673E-04  1.30947886E-04  8.01880818E-05  1.27318808E-04  6.08456928E-05  8.67498781E-05  9.99444948E-05  7.79641051E-05  6.68096646E-05  1.62074697E-04  1.34428648E-04
    2.37130018E-04  8.13589546E-05  1.27950345E-04  1.84818628E-04  1.68250804E-04  1.83177061E-04  1.35374107E-04  1.50186297E-04  4.72229226E-04  4.90388915E-04  5.69722610E-04       0.00166953       0.00248744       0.00189233       0.00181312       0.00127887       0.00110174  5.32066297E-04  8.29523203E-04  6.72755287E-04
    2.43752728E-04  1.93361881E-04  7.10181934E-05  5.15558317E-05  7.82391222E-05  1.10744087E-04  3.25672372E-04  3.26321200E-04  4.78448206E-04  3.31004760E-04  4.95448518E-04  5.00505716E-04  6.02672509E-04  5.06689511E-04       0.00126920       0.00147306       0.00385327       0.00513344       0.00240298       0.00405414
         0.00230390       0.00314547       0.00215658       0.00107533  6.23233253E-04  4.01207407E-04  2.44404185E-04  5.26343005E-04  8.58790473E-04  9.96710369E-04       0.00152037       0.00100750       0.00101773  5.58039353E-04  5.00815895E-04  4.32904426E-04  5.56283064E-04  6.69895559E-04  2.60023571E-04  1.52545187E-04
    9.26466381E-05  5.25896069E-05  3.70917236E-05  7.06047206E-05  4.86119044E-05  5.86785368E-05  3.45900089E-05  4.14397639E-05  4.30308503E-05  5.76767440E-05  1.19761753E-04  1.17732463E-04  1.38877650E-04  1.04201929E-04  6.44279567E-05  5.11947574E-05  5.64823729E-05  3.78012502E-05  1.67465243E-05  4.20033484E-05
    8.96191943E-05  2.23351976E-04  1.24855977E-04  2.61057336E-04  1.74342727E-04  3.94067238E-04  2.78290102E-04  2.04430464E-04  1.24158677E-04  1.58414632E-04  1.58617080E-04  1.06541070E-04  9.83268919E-05  6.69274400E-05  7.65699504E-05  1.48498813E-04  1.43218186E-04  7.47241444E-05  9.23392768E-05  1.97481151E-04
    2.28748574E-04  1.34873796E-04  1.03950329E-04  2.02601993E-04  1.41413925E-04  1.91891800E-04  1.49489452E-04  1.27739480E-04  2.81877406E-04  4.79450962E-04  5.53706104E-04       0.00145226       0.00202872       0.00156850       0.00165093       0.00141056       0.00133965  7.78173697E-04  7.29473339E-04  7.15031366E-04
    2.11438010E-04  2.39739016E-04  1.23645836E-04  6.95127772E-05  7.64012950E-05  1.02162640E-04  2.13695322E-04  4.22954204E-04  6.58724586E-04  4.50374414E-04  3.49820958E-04  4.33114109E-04  4.42022059E-04  6.43139987E-04  7.78094604E-04       0.00153597       0.00231576       0.00646883       0.00226740       0.00378383
         0.00214894       0.00245608       0.00317555       0.00131214  7.39432924E-04  3.92888827E-04  1.85718373E-04  2.69763263E-04  7.50209326E-04  7.40428517E-04       0.00164102       0.00126671       0.00109277  8.79336011E-04  4.77039821E-04  4.97175146E-04  4.82968288E-04  7.22515612E-04  3.51313328E-04  1.79118973E-04
    1.15772772E-04  7.12069649E-05  4.60995803E-05  6.86247829E-05  6.61436109E-05  5.36937858E-05  3.77425517E-05  4.21678412E-05  7.71373067E-05  3.85710324E-05  7.74296651E-05  1.12592416E-04  1.13973506E-04  1.54339189E-04  6.50874767E-05  4.92726977E-05  5.75357655E-05  4.39926521E-05  1.58955544E-05  3.08418121E-05
    4.60413918E-05  1.97374058E-04  1.52855245E-04  1.84579367E-04  1.64551629E-04  1.52234646E-04  2.98641764E-04  2.34051316E-04  1.56905862E-04  1.02722813E-04  1.37698733E-04  9.23201278E-05  9.48531747E-05  7.86554358E-05  9.76507189E-05  1.44408009E-04  2.11747901E-04  9.88413616E-05  6.98092101E-05  1.62933582E-04
    2.24413686E-04  1.54898043E-04  1.66650400E-04  2.05343963E-04  2.22274789E-04  1.28953409E-04  1.49067112E-04  1.23680846E-04  2.46467699E-04  4.38361137E-04  7.40779951E-04  8.67855860E-04       0.00203447       0.00133946       0.00157921       0.00139663       0.00131043  9.06872298E-04       0.00107309  7.27546389E-04
    3.41482250E-04  2.51334652E-04  1.78438904E-04  7.06993742E-05  8.69333724E-05  9.90623469E-05  1.84338468E-04  3.39241332E-04  7.04854630E-04  6.56342610E-04  4.62767612E-04  3.94196847E-04  3.24882423E-04  5.57460237E-04  5.58379097E-04       0.00128052       0.00250554       0.00445814       0.00332131       0.00237960