# File generated by Flopy version 3.5.0 on 02/09/2024 at 11:14:47.
BEGIN griddata
  strt
    INTERNAL  FACTOR  1.0
        15.00000000      15.00000000      15.00000000      15.00000000      15.00000000      15.00000000      15.00000000      15.00000000      15.00000000      15.00000000      15.00000000      15.00000000      15.00000000      15.00000000      15.00000000      15.00000000      15.00000000      15.00000000      15.00000000      15.00000000
        15.00000000      15.00000000      15.00000000      15.00000000      15.00000000      15.00000000      15.00000000      15.00000000      15.00000000      15.00000000      15.00000000      15.00000000      15.00000000      15.00000000      15.00000000      15.00000000      15.00000000      15.00000000      15.00000000      15.00000000
        15.00000000      15.00000000      15.00000000      15.00000000      15.00000000      15.00000000      15.00000000      15.00000000      15.00000000      15.00000000      15.00000000      15.00000000      15.00000000      15.00000000      15.00000000      15.00000000      15.00000000      15.00000000      15.00000000      15.00000000
        15.00000000      15.00000000      15.00000000      15.00000000      15.00000000      15.00000000      15.00000000      15.00000000      15.00000000      15.00000000      15.00000000      15.00000000      15.00000000      15.00000000      15.00000000      15.00000000      15.00000000      15.00000000      15.00000000      15.00000000
        15.00000000      15.00000000      15.00000000      15.00000000      15.00000000      15.00000000      15.00000000      15.00000000      15.00000000      15.00000000      15.00000000      15.00000000      15.00000000      15.00000000      15.00000000      15.00000000      15.00000000      15.00000000      15.00000000      15.00000000
        15.06666983      15.05600211      15.04837784      15.05155949      15.05249804      15.05527253      15.05323265      15.05262968      15.06122026      15.06913558      15.07064954      15.07272790      15.07353485      15.07902015      15.07804026      15.05987394      15.04147894      15.02672435      15.02037806      15.02083467
        15.02191015      15.02480377      15.02500607      15.02363141      15.02547418      15.02938827      15.03552764      15.04277426      15.05026725      15.05665455      15.05801059      15.06159309      15.06172352      15.05561909      15.05460050      15.05513321      15.05596547      15.05278316      15.05125904      15.05228742
        15.04923378      15.05214407      15.05426505      15.05145045      15.05272000      15.05322423      15.04998622      15.05391030      15.05650955      15.05652616      15.05602308      15.04845360      15.04653518      15.03997864      15.04461024      15.04748012      15.05405014      15.06282619      15.07120538      15.06698086
        15.05789793      15.05666550      15.05758685      15.06084818      15.06282053      15.06375154      15.05935437      15.07055687      15.07080606      15.06153878      15.06045416      15.05885053      15.06174050      15.06326386      15.06336975      15.06161395      15.06194303      15.07221573      15.08513139      15.08204295
        15.08363756      15.09052210      15.09254763      15.10620754      15.11024048      15.12187445      15.13846933      15.15512421      15.15763986      15.15598746      15.16687542      15.15613937      15.16178795      15.17345686      15.18639650      15.16146827      15.14344625      15.10226373      15.09094460      15.07992518
        15.13434737      15.11909260      15.10123810      15.09594632      15.09880525      15.10144544      15.10431162      15.10224407      15.11213618      15.12710684      15.13450882      15.13832297      15.14366236      15.14190342      15.14459711      15.12639625      15.09461952      15.06800982      15.04902605      15.04683771
        15.04764548      15.04969495      15.05358921      15.05549272      15.05823212      15.06313318      15.07191240      15.08246639      15.09514000      15.10617066      15.11304976      15.11595888      15.12039534      15.11218503      15.10670484      15.10517224      15.10389880      15.10281864      15.10008720      15.09964223
        15.09861091      15.09655914      15.10127169      15.09906935      15.09792499      15.10018792      15.10136959      15.10235136      15.11144618      15.10784241      15.10953506      15.10094426      15.09732520      15.09074084      15.09537262      15.10029456      15.10322122      15.11167112      15.12494896      15.13079371
        15.12359210      15.11865553      15.11431659      15.11505470      15.11619818      15.12114563      15.11919783      15.12303163      15.13306950      15.12305125      15.11598468      15.11345392      15.11316536      15.11977270      15.12489774      15.12534437      15.12421155      15.13696700      15.15087035      15.15677640
        15.15524035      15.16886084      15.17401960      15.19058621      15.20451673      15.22274759      15.24383448      15.26343075      15.28143291      15.29278323      15.31514657      15.31980600      15.31052721      15.31482998      15.32799577      15.30853219      15.27992479      15.23115609      15.18654640      15.18138123
        15.19538946      15.18280562      15.16511890      15.14755909      15.14210601      15.14499453      15.14937882      15.15172644      15.15984807      15.17658211      15.18684354      15.19480335      15.20123886      15.20081935      15.19692563      15.18974465      15.15719092      15.12614563      15.09225125      15.07971241
        15.07696280      15.07818758      15.08473504      15.09306666      15.09568089      15.10060930      15.10751537      15.12332638      15.13949209      15.15372214      15.16302238      15.16972286      15.17105230      15.17107736      15.15919094      15.15491009      15.14901518      15.14886578      15.14704968      15.14607509
        15.14419335      15.14132252      15.14530858      15.14481853      15.13952581      15.14202941      15.14870726      15.15086656      15.16050038      15.15875038      15.15670270      15.15401855      15.14724050      15.14532769      15.14541700      15.15177530      15.15337878      15.15860267      15.17030272      15.18596560
        15.18468941      15.18014835      15.17167588      15.16409699      15.16556695      15.17146377      15.17460367      15.17406173      15.18273190      15.17919035      15.16952370      15.16745380      15.16438362      15.17199567      15.18145865      15.18743443      15.18792196      15.19796779      15.20979645      15.22080232
        15.22179324      15.23462886      15.24836742      15.25746338      15.28169521      15.30273995      15.32424394      15.34857979      15.37842810      15.40382373      15.43547987      15.45228256      15.44409567      15.43604158      15.43797009      15.43307540      15.40660346      15.36206811      15.29869779      15.28128033
        15.25826327      15.24547084      15.23340726      15.21034197      15.19443179      15.19103868      15.19487791      15.20071922      15.20736476      15.21995995      15.23304707      15.24257345      15.24995358      15.25543464      15.25078535      15.24729321      15.22134560      15.18477438      15.15091052      15.12155776
        15.11301538      15.11142994      15.11786478      15.12883588      15.13539934      15.13908751      15.14649945      15.16384739      15.18175775      15.19781645      15.20942886      15.21780075      15.21937902      15.22439790      15.21532756      15.20364833      15.19634886      15.19005762      15.19278677      15.19137303
        15.18985880      15.18613996      15.18981438      15.19115944      15.18741728      15.18463583      15.19575514      15.19971816      15.20378149      15.20840101      15.20526190      15.20432483      15.19970688      15.19674922      15.19410843      15.19722180      15.20228646      15.20593995      15.21509851      15.22776081
        15.23304715      15.23073641      15.22571290      15.21143512      15.21061393      15.21360135      15.22079738      15.22060333      15.22375847      15.22641665      15.22037612      15.21733427      15.21830758      15.22037034      15.23144273      15.24319924      15.25015645      15.25637261      15.26879430      15.27467832
        15.28324799      15.29276809      15.31599621      15.32391905      15.34664629      15.36949629      15.39614487      15.42492913      15.46204836      15.49332191      15.52505258      15.54312339      15.54886311      15.54089877      15.53409667      15.53378558      15.51092211      15.47469017      15.41604820      15.37531219
        15.32420851      15.31457042      15.30228493      15.28424550      15.25991398      15.24626673      15.24692902      15.25184243      15.25659645      15.26386442      15.27504813      15.28572301      15.29662886      15.30535332      15.30736660      15.30257668      15.28563937      15.24328840      15.21095776      15.17821428
        15.15869695      15.15254166      15.15228087      15.16109502      15.17086239      15.17656013      15.18593536      15.20302699      15.22005691      15.23731130      15.24945842      15.25706385      15.26182706      15.26661653      15.26784635      15.25338712      15.24221792      15.23239194      15.23340761      15.23518423
        15.23626697      15.23410826      15.23407354      15.24025006      15.24026547      15.23812018      15.24385563      15.25138302      15.24845106      15.25781123      15.25541625      15.25407461      15.25158489      15.24716672      15.24158197      15.24208971      15.24564719      15.25323782      15.25799280      15.26489038
        15.27054687      15.27032298      15.26790318      15.25814236      15.24959330      15.25237631      15.25646075      15.25904446      15.25920679      15.26670488      15.26501382      15.26304262      15.26724900      15.26997766      15.27797836      15.29311888      15.30358371      15.31047165      15.32181375      15.32853723
        15.34110201      15.35128630      15.37224905      15.39002255      15.40575606      15.43333722      15.46100300      15.49440187      15.53410827      15.56710112      15.59135624      15.61142202      15.62055915      15.62549145      15.62339523      15.62216354      15.59773444      15.56608297      15.52739023      15.48883557
        15.38800428      15.38736699      15.37272844      15.36052216      15.33255113      15.31383933      15.30767652      15.30876399      15.30754521      15.30981735      15.31563276      15.32975991      15.34403051      15.35560078      15.36368819      15.36023472      15.34868154      15.31156852      15.26700351      15.23878008
        15.21363009      15.20178040      15.19293782      15.19257231      15.20056572      15.21193993      15.22534928      15.24193813      15.25512297      15.26861696      15.28212526      15.29074099      15.29806704      15.30213108      15.30873870      15.29907510      15.28528804      15.27463213      15.26905886      15.27283072
        15.27812473      15.28263507      15.28299543      15.28955596      15.29172499      15.29576813      15.29695050      15.30370064      15.29980854      15.30282287      15.30603747      15.30399181      15.30241009      15.29796030      15.28923021      15.28668166      15.29084636      15.29825386      15.29889904      15.29927220
        15.30248470      15.30337476      15.30159347      15.29786845      15.28583543      15.28418766      15.28713384      15.29133785      15.29328905      15.29902914      15.30315421      15.30333462      15.30883167      15.31490540      15.32141633      15.33409676      15.34893851      15.35574913      15.36577674      15.37703720
        15.39270980      15.40750595      15.42504901      15.44680493      15.46402869      15.49224411      15.52481631      15.55963975      15.59683486      15.62352567      15.64474857      15.66338419      15.67637252      15.68971618      15.69883765      15.69770913      15.67743366      15.64082924      15.62106491      15.60347627
        15.45467960      15.44989530      15.44229212      15.43000721      15.40871493      15.38483823      15.37263994      15.36725228      15.36188341      15.35741157      15.36232137      15.37478770      15.39321751      15.40875548      15.41994995      15.41627492      15.40616370      15.38100837      15.33175522      15.29465754
        15.27208921      15.25471376      15.24316712      15.23020147      15.23474260      15.24748275      15.26391624      15.27841090      15.29040815      15.29694371      15.31178212      15.32022269      15.33007092      15.33459178      15.33986604      15.33581120      15.32523532      15.31439070      15.30617122      15.30682658
        15.31433834      15.32402286      15.32990587      15.33529175      15.34181046      15.34751436      15.35022674      15.35146408      15.35185438      15.34662784      15.35289061      15.35058268      15.34971443      15.34866547      15.33961253      15.33161823      15.33469421      15.33729741      15.33715107      15.33269308
        15.33213520      15.33305205      15.33132896      15.32968904      15.32131779      15.31220488      15.31495405      15.32064252      15.32537161      15.32900643      15.33593150      15.33848880      15.34441319      15.35307603      15.36083021      15.37145902      15.38605885      15.39254861      15.40156551      15.41788768
        15.43541009      15.45615495      15.47295537      15.49440191      15.51638569      15.54489042      15.57899450      15.61430385      15.64287071      15.66619592      15.68639778      15.70306262      15.71783140      15.73607094      15.75205878      15.76091375      15.75258818      15.72358995      15.70243307      15.69837761
        15.52391819      15.51153551      15.50444966      15.49161230      15.47808558      15.45819291      15.43938618      15.42832418      15.41629036      15.40803407      15.41086731      15.42455888      15.44232062      15.45988550      15.46742354      15.46653991      15.45436065      15.43601927      15.39001841      15.34042946
        15.32049155      15.30757231      15.29693999      15.28244896      15.27678780      15.28797473      15.30372433      15.31550075      15.32430911      15.32852196      15.33805070      15.34944866      15.35909053      15.36541497      15.36514310      15.36546568      15.35876476      15.35131433      15.34260514      15.34106275
        15.34670712      15.35951109      15.36799921      15.37711561      15.38663144      15.39286801      15.39729885      15.39652702      15.39666688      15.39087150      15.39020893      15.39203339      15.39097992      15.39351468      15.38806714      15.37618267      15.37079851      15.37019385      15.36867792      15.36403529
        15.36097316      15.36100792      15.35830430      15.35702451      15.35471927      15.34429237      15.34312177      15.35039242      15.35609334      15.36039217      15.36534784      15.37061062      15.37756032      15.38699894      15.39564164      15.40440784      15.41386377      15.42385579      15.43387792      15.45257546
        15.47120269      15.49298372      15.51258697      15.53594718      15.55925231      15.58951563      15.62305628      15.65618745      15.67727838      15.69693467      15.71477597      15.73195312      15.74794755      15.76888054      15.78810542      15.80273931      15.80540418      15.79666525      15.78054666      15.77064803
        15.58847437      15.57811776      15.56809485      15.55576546      15.54067947      15.52711917      15.50701989      15.48967996      15.47387519      15.46255031      15.46083503      15.47534305      15.48999130      15.50388999      15.50859799      15.50784214      15.49594772      15.47275765      15.42310781      15.36282626
        15.35254552      15.35324411      15.34989781      15.34236746      15.32998093      15.33205908      15.34389400      15.35128437      15.35667395      15.36284465      15.36731811      15.37942059      15.38722655      15.39315292      15.39185654      15.39189822      15.38926478      15.38557499      15.37846068      15.37597843
        15.38134201      15.39153525      15.40096454      15.41135308      15.42389848      15.43279251      15.43863859      15.43624813      15.43366083      15.42875835      15.42339214      15.42603225      15.42668331      15.42677067      15.42798352      15.41656947      15.40276231      15.39516699      15.39081240      15.38604869
        15.38714581      15.38607700      15.38400972      15.38064896      15.38256647      15.37858967      15.37523541      15.37970345      15.38655212      15.39030864      15.39647413      15.40207505      15.40968306      15.41760510      15.42887476      15.43544106      15.44101829      15.45058964      15.46345596      15.48238471
        15.50354764      15.52246584      15.54507850      15.56857780      15.59433700      15.62601629      15.65725255      15.68237400      15.70144414      15.71665409      15.73483960      15.75135293      15.76703893      15.78739801      15.80948002      15.82466919      15.83477768      15.83945685      15.83741980      15.82588557
        15.64830259      15.64554493      15.64131166      15.62761883      15.60850479      15.59124104      15.57432332      15.55256815      15.53803257      15.52227810      15.51561367      15.52415751      15.53753354      15.54240463      15.54591025      15.53892844      15.53037808      15.49955388      15.43524387      15.33286737
        15.36225120      15.38565987      15.39858794      15.39996923      15.38804226      15.37797403      15.38160992      15.38734768      15.39063514      15.39643831      15.39909920      15.40724296      15.41411952      15.41721976      15.41736387      15.41682327      15.41784187      15.41811161      15.41409829      15.41141787
        15.41483406      15.42153482      15.43223161      15.44331314      15.45616236      15.46717028      15.47295802      15.47142081      15.46609369      15.46079619      15.45475715      15.45518993      15.45761538      15.45638723      15.45752863      15.44999994      15.43252956      15.41711698      15.40505085      15.39394841
        15.40471993      15.40888811      15.40819377      15.40470468      15.40527534      15.40882691      15.40763687      15.41046465      15.41586401      15.41894518      15.42640965      15.43439946      15.44092328      15.44887014      15.45814644      15.46510768      15.46844398      15.47749534      15.49240269      15.51188427
        15.53106055      15.54956992      15.57222275      15.59623585      15.62216125      15.65252539      15.68042346      15.70115998      15.71835793      15.73281343      15.74928639      15.76310054      15.77774308      15.79874127      15.82103680      15.83718412      15.84842801      15.85854349      15.86771519      15.86407279
        15.71357022      15.71682433      15.71643590      15.70716549      15.68720614      15.66322192      15.64090067      15.62252956      15.60728778      15.59268165      15.57794258      15.57385951      15.58333758      15.58464703      15.58462780      15.57532416      15.56071788      15.52809328      15.44255338      15.12121699
        15.35604309      15.42044647      15.44416534      15.45298130      15.44571033      15.42980175      15.41923881      15.42269718      15.42336288      15.42742212      15.42985614      15.43267373      15.43764570      15.43956531      15.43924213      15.44148246      15.44382234      15.44686806      15.44720287      15.44632544
        15.44802962      15.45224993      15.46070638      15.47334028      15.48549914      15.49700264      15.50299505      15.50298453      15.49639815      15.49115902      15.48606303      15.48367570      15.48449969      15.48322646      15.47967433      15.47599055      15.46016377      15.44014138      15.41709420      15.37711713
        15.41747564      15.42962374      15.43052785      15.42905038      15.42852606      15.43419469      15.43692984      15.43868074      15.44157346      15.44625488      15.45331034      15.46427771      15.47061981      15.47715854      15.48334502      15.49200369      15.49573219      15.50405764      15.52031701      15.53883042
        15.55639201      15.57491926      15.59624739      15.61880799      15.64395128      15.67182153      15.69739000      15.71469840      15.72912788      15.74448884      15.75974880      15.77114435      15.78437765      15.80393811      15.82608333      15.84425001      15.85518615      15.86388059      15.87713130      15.87967293
        15.79900290      15.79350899      15.79274553      15.78553998      15.76895580      15.74284604      15.71511877      15.69489464      15.68102028      15.66571451      15.64742668      15.62828644      15.63004532      15.63016393      15.62657254      15.61942136      15.59932590      15.57381653      15.53092261      15.45110060
        15.46559358      15.48928289      15.50475233      15.50821488      15.49940088      15.48166070      15.46443709      15.45677435      15.45587432      15.45479320      15.45621092      15.45484259      15.45744292      15.45880191      15.45964620      15.46325548      15.46765585      15.47035626      15.47531723      15.47594861
        15.47952456      15.48147336      15.48834540      15.50093735      15.51336800      15.52192956      15.52983336      15.52992235      15.52535425      15.52013681      15.51671840      15.51243059      15.51024177      15.50714382      15.50243174      15.49795441      15.48794021      15.46928734      15.45222614      15.43708698
        15.44558609      15.45222891      15.45375173      15.45305115      15.45297909      15.45658819      15.46223496      15.46303843      15.46475311      15.47159646      15.47815533      15.48849356      15.49620031      15.50113145      15.50660742      15.51366870      15.51975430      15.52935533      15.54662935      15.56405411
        15.58121468      15.59676202      15.61703686      15.63818591      15.66033590      15.68530504      15.70849032      15.72403407      15.73707099      15.75164142      15.76617391      15.77630375      15.78752743      15.80701336      15.82812830      15.84663755      15.85846758      15.86516164      15.87523253      15.88199745
        15.89779916      15.87708365      15.86823972      15.85897545      15.84039858      15.81828193      15.79124057      15.76626973      15.75286284      15.73576521      15.71541099      15.68995835      15.67618468      15.67711160      15.67090140      15.66553821      15.64727992      15.62429341      15.60179295      15.57740275
        15.57170822      15.57144054      15.57250703      15.56422373      15.54540496      15.52718182      15.51006821      15.49392815      15.48705142      15.48060629      15.47786210      15.47609223      15.47489137      15.47569762      15.47800571      15.48221946      15.48863240      15.49182270      15.49697941      15.50013535
        15.50473536      15.50878197      15.51475260      15.52539238      15.53574451      15.54337336      15.55080976      15.55315500      15.55035188      15.54715068      15.54385913      15.53948307      15.53432593      15.52930104      15.52415683      15.51870765      15.51346587      15.50027336      15.48420122      15.47390321
        15.47089883      15.47417832      15.47713905      15.47776193      15.47718075      15.48008821      15.48434200      15.48662006      15.48639022      15.49396851      15.50099665      15.50900912      15.51651799      15.52167618      15.52652959      15.53281679      15.54102143      15.55241888      15.56865468      15.58631450
        15.60306436      15.61824317      15.63592490      15.65438464      15.67246400      15.69385769      15.71397755      15.72973670      15.74182513      15.75424123      15.76909210      15.78017234      15.79005107      15.80811391      15.82738825      15.84446487      15.85795178      15.86477304      15.87098392      15.87755072
        15.98479110      15.96161396      15.93517967      15.92609490      15.90416980      15.88518754      15.86120197      15.83501266      15.81353031      15.79555284      15.77219619      15.74714368      15.72232517      15.72250857      15.71553551      15.70782892      15.69474720      15.67628401      15.65920886      15.65453484
        15.64846838      15.64329774      15.63470084      15.61833764      15.59023959      15.56563948      15.54823175      15.53077139      15.51776546      15.50732968      15.49841798      15.49545670      15.49289198      15.49268725      15.49563280      15.49981354      15.50581773      15.51051748      15.51525891      15.52068791
        15.52430389      15.53045331      15.53734218      15.54630933      15.55417645      15.56073763      15.56591429      15.57066556      15.57061687      15.56867020      15.56567453      15.56004684      15.55541341      15.55017670      15.54455748      15.53845771      15.53488027      15.52820382      15.51376352      15.50230218
        15.49559499      15.49589231      15.49990060      15.50219504      15.50207294      15.50252781      15.50490836      15.50854148      15.51006142      15.51471231      15.52323772      15.52688600      15.53412858      15.53956244      15.54486890      15.55068520      15.56044863      15.57222957      15.58939256      15.60610328
        15.62205822      15.63666073      15.65133205      15.66739045      15.68395561      15.70040315      15.71661372      15.73234768      15.74449720      15.75554506      15.77007736      15.78204126      15.79128381      15.80695613      15.82533468      15.84097828      15.85375540      15.86214484      15.86631377      15.87036445
        16.07022133      16.05076598      16.00922630      15.98667916      15.96788178      15.94168229      15.92100346      15.89384955      15.86476919      15.84177812      15.82052734      15.79428989      15.76785737      15.75829258      15.75459741      15.74445857      15.73428362      15.72092522      15.70943748      15.70552588
        15.70243411      15.69206508      15.68004865      15.65874656      15.63057874      15.59959783      15.58004224      15.56107276      15.54658302      15.53477759      15.52252681      15.51404333      15.51204267      15.51066794      15.51342018      15.51757092      15.52157245      15.52701468      15.53219199      15.53787192
        15.54257977      15.54843441      15.55559210      15.56335979      15.56939105      15.57432623      15.57897388      15.58337887      15.58576599      15.58439197      15.58176490      15.57561251      15.57165501      15.56805037      15.56294725      15.55674480      15.55148543      15.54819544      15.53872101      15.52719217
        15.52011248      15.51855419      15.52143909      15.52469456      15.52595263      15.52462386      15.52651677      15.52863300      15.53338571      15.53630316      15.54403322      15.54586710      15.55108704      15.55665770      15.56246327      15.56924846      15.57903775      15.59211694      15.60817976      15.62365604
        15.63831111      15.65227944      15.66509729      15.67926318      15.69346602      15.70664323      15.71914867      15.73311099      15.74521618      15.75571155      15.76955624      15.78285269      15.79211141      15.80452935      15.82095505      15.83656991      15.84800859      15.85655863      15.86062521      15.86174865
        16.15690468      16.14126120      16.09450867      16.05035986      16.02659130      15.99617097      15.96833834      15.94261703      15.90992500      15.88096064      15.85936874      15.83365886      15.80625004      15.78915897      15.78390972      15.77565364      15.76482727      15.75556778      15.74611514      15.73767341
        15.73298233      15.72092209      15.70705117      15.68702261      15.65933288      15.62834394      15.60463477      15.58522304      15.56969503      15.55923233      15.54745861      15.53611317      15.53071099      15.53031859      15.53182964      15.53623675      15.53747603      15.54264924      15.54746784      15.55322301
        15.55936100      15.56486975      15.57032941      15.57750187      15.58213683      15.58652042      15.59036199      15.59368357      15.59656908      15.59596105      15.59232452      15.58784329      15.58301946      15.58162256      15.57761829      15.57281360      15.56594826      15.56293798      15.55664441      15.54871171
        15.54303147      15.54119123      15.54194737      15.54441342      15.54625589      15.54579635      15.54763139      15.54897173      15.55392255      15.55749844      15.56150534      15.56510069      15.56722252      15.57353044      15.58010036      15.58842856      15.59758398      15.61160956      15.62554961      15.64107075
        15.65369742      15.66564037      15.67748639      15.68992761      15.70176675      15.71247658      15.72177569      15.73317219      15.74517555      15.75554838      15.76889291      15.78247131      15.79158789      15.80115478      15.81564512      15.83123793      15.84225631      15.84907086      15.85353720      15.85312341
        16.23848601      16.21759580      16.17819689      16.12096213      16.08205611      16.04958352      16.00716102      15.97864138      15.94996396      15.91813390      15.89319214      15.86615579      15.83731134      15.81716366      15.80611853      15.79724519      15.78661295      15.77729367      15.76951014      15.75795994
        15.74862574      15.73577601      15.71924712      15.70252362      15.67873501      15.64894709      15.62252443      15.60298087      15.58797000      15.57818716      15.56931723      15.55933051      15.55043421      15.54906904      15.55011419      15.55311448      15.55485090      15.55746986      15.56212991      15.56680155