# File generated by Flopy version 3.5.0 on 02/07/2024 at 12:07:29.
BEGIN options
END options

BEGIN dimensions
  MAXBOUND  5
END dimensions

BEGIN period  1
  1 1020 0.00000000E+00
  1 1060 0.00000000E+00
  1 3020 0.00000000E+00
  1 3080 -2.50000000E-05
  1 4070 -2.50000000E-04
END period  1

