# File generated by Flopy version 3.5.0 on 01/17/2024 at 11:16:58.
BEGIN options
END options

BEGIN dimensions
  MAXBOUND  616
END dimensions

BEGIN period  1
  1 1 3.00000000E-04
  1 2 3.00000000E-04
  1 3 3.00000000E-04
  1 4 3.00000000E-04
  1 5 3.00000000E-04
  1 6 3.00000000E-04
  1 7 3.00000000E-04
  1 8 3.00000000E-04
  1 9 3.00000000E-04
  1 10 3.00000000E-04
  1 11 3.00000000E-04
  1 12 3.00000000E-04
  1 13 3.00000000E-04
  1 14 3.00000000E-04
  1 15 3.00000000E-04
  1 16 3.00000000E-04
  1 17 3.00000000E-04
  1 18 3.00000000E-04
  1 19 3.00000000E-04
  1 20 3.00000000E-04
  1 21 3.00000000E-04
  1 22 3.00000000E-04
  1 23 3.00000000E-04
  1 24 3.00000000E-04
  1 25 3.00000000E-04
  1 26 3.00000000E-04
  1 27 3.00000000E-04
  1 28 3.00000000E-04
  1 29 3.00000000E-04
  1 30 3.00000000E-04
  1 31 3.00000000E-04
  1 32 3.00000000E-04
  1 33 3.00000000E-04
  1 34 3.00000000E-04
  1 35 3.00000000E-04
  1 36 3.00000000E-04
  1 37 3.00000000E-04
  1 38 3.00000000E-04
  1 39 3.00000000E-04
  1 40 3.00000000E-04
  1 41 3.00000000E-04
  1 42 3.00000000E-04
  1 43 3.00000000E-04
  1 44 3.00000000E-04
  1 45 3.00000000E-04
  1 46 3.00000000E-04
  1 47 3.00000000E-04
  1 48 3.00000000E-04
  1 49 3.00000000E-04
  1 50 3.00000000E-04
  1 51 3.00000000E-04
  1 52 3.00000000E-04
  1 53 3.00000000E-04
  1 54 3.00000000E-04
  1 55 3.00000000E-04
  1 56 3.00000000E-04
  1 57 3.00000000E-04
  1 58 3.00000000E-04
  1 59 3.00000000E-04
  1 60 3.00000000E-04
  1 61 3.00000000E-04
  1 62 3.00000000E-04
  1 63 3.00000000E-04
  1 64 3.00000000E-04
  1 65 3.00000000E-04
  1 66 3.00000000E-04
  1 67 3.00000000E-04
  1 68 3.00000000E-04
  1 69 3.00000000E-04
  1 70 3.00000000E-04
  1 71 3.00000000E-04
  1 72 3.00000000E-04
  1 73 3.00000000E-04
  1 74 3.00000000E-04
  1 75 3.00000000E-04
  1 76 3.00000000E-04
  1 77 3.00000000E-04
  1 78 3.00000000E-04
  1 79 3.00000000E-04
  1 80 3.00000000E-04
  1 81 3.00000000E-04
  1 82 3.00000000E-04
  1 83 3.00000000E-04
  1 84 3.00000000E-04
  1 85 3.00000000E-04
  1 86 3.00000000E-04
  1 87 3.00000000E-04
  1 88 3.00000000E-04
  1 89 3.00000000E-04
  1 90 3.00000000E-04
  1 91 3.00000000E-04
  1 92 3.00000000E-04
  1 93 3.00000000E-04
  1 94 3.00000000E-04
  1 95 3.00000000E-04
  1 96 3.00000000E-04
  1 97 3.00000000E-04
  1 98 3.00000000E-04
  1 99 3.00000000E-04
  1 100 3.00000000E-04
  1 101 3.00000000E-04
  1 102 3.00000000E-04
  1 103 3.00000000E-04
  1 104 3.00000000E-04
  1 105 3.00000000E-04
  1 106 3.00000000E-04
  1 107 3.00000000E-04
  1 108 3.00000000E-04
  1 109 3.00000000E-04
  1 110 3.00000000E-04
  1 111 3.00000000E-04
  1 112 3.00000000E-04
  1 113 3.00000000E-04
  1 114 3.00000000E-04
  1 115 3.00000000E-04
  1 116 3.00000000E-04
  1 117 3.00000000E-04
  1 118 3.00000000E-04
  1 119 3.00000000E-04
  1 120 3.00000000E-04
  1 121 3.00000000E-04
  1 122 3.00000000E-04
  1 123 3.00000000E-04
  1 124 3.00000000E-04
  1 125 3.00000000E-04
  1 126 3.00000000E-04
  1 127 3.00000000E-04
  1 128 3.00000000E-04
  1 129 3.00000000E-04
  1 130 3.00000000E-04
  1 131 3.00000000E-04
  1 132 3.00000000E-04
  1 133 3.00000000E-04
  1 134 3.00000000E-04
  1 135 3.00000000E-04
  1 136 3.00000000E-04
  1 137 3.00000000E-04
  1 138 3.00000000E-04
  1 139 3.00000000E-04
  1 140 3.00000000E-04
  1 141 3.00000000E-04
  1 142 3.00000000E-04
  1 143 3.00000000E-04
  1 144 3.00000000E-04
  1 145 3.00000000E-04
  1 146 3.00000000E-04
  1 147 3.00000000E-04
  1 148 3.00000000E-04
  1 149 3.00000000E-04
  1 150 3.00000000E-04
  1 151 3.00000000E-04
  1 152 3.00000000E-04
  1 153 3.00000000E-04
  1 154 3.00000000E-04
  1 155 3.00000000E-04
  1 156 3.00000000E-04
  1 157 3.00000000E-04
  1 158 3.00000000E-04
  1 159 3.00000000E-04
  1 160 3.00000000E-04
  1 161 3.00000000E-04
  1 162 3.00000000E-04
  1 163 3.00000000E-04
  1 164 3.00000000E-04
  1 165 3.00000000E-04
  1 166 3.00000000E-04
  1 167 3.00000000E-04
  1 168 3.00000000E-04
  1 169 3.00000000E-04
  1 170 3.00000000E-04
  1 171 3.00000000E-04
  1 172 3.00000000E-04
  1 173 3.00000000E-04
  1 174 3.00000000E-04
  1 175 3.00000000E-04
  1 176 3.00000000E-04
  1 177 3.00000000E-04
  1 178 3.00000000E-04
  1 179 3.00000000E-04
  1 180 3.00000000E-04
  1 181 3.00000000E-04
  1 182 3.00000000E-04
  1 183 3.00000000E-04
  1 184 3.00000000E-04
  1 185 3.00000000E-04
  1 186 3.00000000E-04
  1 187 3.00000000E-04
  1 188 3.00000000E-04
  1 189 3.00000000E-04
  1 190 3.00000000E-04
  1 191 3.00000000E-04
  1 192 3.00000000E-04
  1 193 3.00000000E-04
  1 194 3.00000000E-04
  1 195 3.00000000E-04
  1 196 3.00000000E-04
  1 197 3.00000000E-04
  1 198 3.00000000E-04
  1 199 3.00000000E-04
  1 200 3.00000000E-04
  1 201 3.00000000E-04
  1 202 3.00000000E-04
  1 203 3.00000000E-04
  1 204 3.00000000E-04
  1 205 3.00000000E-04
  1 206 3.00000000E-04
  1 207 3.00000000E-04
  1 208 3.00000000E-04
  1 209 3.00000000E-04
  1 210 3.00000000E-04
  1 211 3.00000000E-04
  1 212 3.00000000E-04
  1 213 3.00000000E-04
  1 214 3.00000000E-04
  1 215 3.00000000E-04
  1 216 3.00000000E-04
  1 217 3.00000000E-04
  1 218 3.00000000E-04
  1 219 3.00000000E-04
  1 220 3.00000000E-04
  1 221 3.00000000E-04
  1 222 3.00000000E-04
  1 223 3.00000000E-04
  1 224 3.00000000E-04
  1 225 3.00000000E-04
  1 226 3.00000000E-04
  1 227 3.00000000E-04
  1 228 3.00000000E-04
  1 229 3.00000000E-04
  1 230 3.00000000E-04
  1 231 3.00000000E-04
  1 232 3.00000000E-04
  1 233 3.00000000E-04
  1 234 3.00000000E-04
  1 235 3.00000000E-04
  1 236 3.00000000E-04
  1 237 3.00000000E-04
  1 238 3.00000000E-04
  1 239 3.00000000E-04
  1 240 3.00000000E-04
  1 241 3.00000000E-04
  1 242 3.00000000E-04
  1 243 3.00000000E-04
  1 244 3.00000000E-04
  1 245 3.00000000E-04
  1 246 3.00000000E-04
  1 247 3.00000000E-04
  1 248 3.00000000E-04
  1 249 3.00000000E-04
  1 250 3.00000000E-04
  1 251 3.00000000E-04
  1 252 3.00000000E-04
  1 253 3.00000000E-04
  1 254 3.00000000E-04
  1 255 3.00000000E-04
  1 256 3.00000000E-04
  1 257 3.00000000E-04
  1 258 3.00000000E-04
  1 259 3.00000000E-04
  1 260 3.00000000E-04
  1 261 3.00000000E-04
  1 262 3.00000000E-04
  1 263 3.00000000E-04
  1 264 3.00000000E-04
  1 265 3.00000000E-04
  1 266 3.00000000E-04
  1 267 3.00000000E-04
  1 268 3.00000000E-04
  1 269 3.00000000E-04
  1 270 3.00000000E-04
  1 271 3.00000000E-04
  1 272 3.00000000E-04
  1 273 3.00000000E-04
  1 274 3.00000000E-04
  1 275 3.00000000E-04
  1 276 3.00000000E-04
  1 277 3.00000000E-04
  1 278 3.00000000E-04
  1 279 3.00000000E-04
  1 280 3.00000000E-04
  1 281 3.00000000E-04
  1 282 3.00000000E-04
  1 283 3.00000000E-04
  1 284 3.00000000E-04
  1 285 3.00000000E-04
  1 286 3.00000000E-04
  1 287 3.00000000E-04
  1 288 3.00000000E-04
  1 289 3.00000000E-04
  1 290 3.00000000E-04
  1 291 3.00000000E-04
  1 292 3.00000000E-04
  1 293 3.00000000E-04
  1 294 3.00000000E-04
  1 295 3.00000000E-04
  1 296 3.00000000E-04
  1 297 3.00000000E-04
  1 298 3.00000000E-04
  1 299 3.00000000E-04
  1 300 3.00000000E-04
  1 301 3.00000000E-04
  1 302 3.00000000E-04
  1 303 3.00000000E-04
  1 304 3.00000000E-04
  1 305 3.00000000E-04
  1 306 3.00000000E-04
  1 307 3.00000000E-04
  1 308 3.00000000E-04
  1 309 3.00000000E-04
  1 310 3.00000000E-04
  1 311 3.00000000E-04
  1 312 3.00000000E-04
  1 313 3.00000000E-04
  1 314 3.00000000E-04
  1 315 3.00000000E-04
  1 316 3.00000000E-04
  1 317 3.00000000E-04
  1 318 3.00000000E-04
  1 319 3.00000000E-04
  1 320 3.00000000E-04
  1 321 3.00000000E-04
  1 322 3.00000000E-04
  1 323 3.00000000E-04
  1 324 3.00000000E-04
  1 325 3.00000000E-04
  1 326 3.00000000E-04
  1 327 3.00000000E-04
  1 328 3.00000000E-04
  1 329 3.00000000E-04
  1 330 3.00000000E-04
  1 331 3.00000000E-04
  1 332 3.00000000E-04
  1 333 3.00000000E-04
  1 334 3.00000000E-04
  1 335 3.00000000E-04
  1 336 3.00000000E-04
  1 337 3.00000000E-04
  1 338 3.00000000E-04
  1 339 3.00000000E-04
  1 340 3.00000000E-04
  1 341 3.00000000E-04
  1 342 3.00000000E-04
  1 343 3.00000000E-04
  1 344 3.00000000E-04
  1 345 3.00000000E-04
  1 346 3.00000000E-04
  1 347 3.00000000E-04
  1 348 3.00000000E-04
  1 349 3.00000000E-04
  1 350 3.00000000E-04
  1 351 3.00000000E-04
  1 352 3.00000000E-04
  1 353 3.00000000E-04
  1 354 3.00000000E-04
  1 355 3.00000000E-04
  1 356 3.00000000E-04
  1 357 3.00000000E-04
  1 358 3.00000000E-04
  1 359 3.00000000E-04
  1 360 3.00000000E-04
  1 361 3.00000000E-04
  1 362 3.00000000E-04
  1 363 3.00000000E-04
  1 364 3.00000000E-04
  1 365 3.00000000E-04
  1 366 3.00000000E-04
  1 367 3.00000000E-04
  1 368 3.00000000E-04
  1 369 3.00000000E-04
  1 370 3.00000000E-04
  1 371 3.00000000E-04
  1 372 3.00000000E-04
  1 373 3.00000000E-04
  1 374 3.00000000E-04
  1 375 3.00000000E-04
  1 376 3.00000000E-04
  1 377 3.00000000E-04
  1 378 3.00000000E-04
  1 379 3.00000000E-04
  1 380 3.00000000E-04
  1 381 3.00000000E-04
  1 382 3.00000000E-04
  1 383 3.00000000E-04
  1 384 3.00000000E-04
  1 385 3.00000000E-04
  1 386 3.00000000E-04
  1 387 3.00000000E-04
  1 388 3.00000000E-04
  1 389 3.00000000E-04
  1 390 3.00000000E-04
  1 391 3.00000000E-04
  1 392 3.00000000E-04
  1 393 3.00000000E-04
  1 394 3.00000000E-04
  1 395 3.00000000E-04
  1 396 3.00000000E-04
  1 397 3.00000000E-04
  1 398 3.00000000E-04
  1 399 3.00000000E-04
  1 400 3.00000000E-04
  1 401 3.00000000E-04
  1 402 3.00000000E-04
  1 403 3.00000000E-04
  1 404 3.00000000E-04
  1 405 3.00000000E-04
  1 406 3.00000000E-04
  1 407 3.00000000E-04
  1 408 3.00000000E-04
  1 409 3.00000000E-04
  1 410 3.00000000E-04
  1 411 3.00000000E-04
  1 412 3.00000000E-04
  1 413 3.00000000E-04
  1 414 3.00000000E-04
  1 415 3.00000000E-04
  1 416 3.00000000E-04
  1 417 3.00000000E-04
  1 418 3.00000000E-04
  1 419 3.00000000E-04
  1 420 3.00000000E-04
  1 421 3.00000000E-04
  1 422 3.00000000E-04
  1 423 3.00000000E-04
  1 424 3.00000000E-04
  1 425 3.00000000E-04
  1 426 3.00000000E-04
  1 427 3.00000000E-04
  1 428 3.00000000E-04
  1 429 3.00000000E-04
  1 430 3.00000000E-04
  1 431 3.00000000E-04
  1 432 3.00000000E-04
  1 433 3.00000000E-04
  1 434 3.00000000E-04
  1 435 3.00000000E-04
  1 436 3.00000000E-04
  1 437 3.00000000E-04
  1 438 3.00000000E-04
  1 439 3.00000000E-04
  1 440 3.00000000E-04
  1 441 3.00000000E-04
  1 442 3.00000000E-04
  1 443 3.00000000E-04
  1 444 3.00000000E-04
  1 445 3.00000000E-04
  1 446 3.00000000E-04
  1 447 3.00000000E-04
  1 448 3.00000000E-04
  1 449 3.00000000E-04
  1 450 3.00000000E-04
  1 451 3.00000000E-04
  1 452 3.00000000E-04
  1 453 3.00000000E-04
  1 454 3.00000000E-04
  1 455 3.00000000E-04
  1 456 3.00000000E-04
  1 457 3.00000000E-04
  1 458 3.00000000E-04
  1 459 3.00000000E-04
  1 460 3.00000000E-04
  1 461 3.00000000E-04
  1 462 3.00000000E-04
  1 463 3.00000000E-04
  1 464 3.00000000E-04
  1 465 3.00000000E-04
  1 466 3.00000000E-04
  1 467 3.00000000E-04
  1 468 3.00000000E-04
  1 469 3.00000000E-04
  1 470 3.00000000E-04
  1 471 3.00000000E-04
  1 472 3.00000000E-04
  1 473 3.00000000E-04
  1 474 3.00000000E-04
  1 475 3.00000000E-04
  1 476 3.00000000E-04
  1 477 3.00000000E-04
  1 478 3.00000000E-04
  1 479 3.00000000E-04
  1 480 3.00000000E-04
  1 481 3.00000000E-04
  1 482 3.00000000E-04
  1 483 3.00000000E-04
  1 484 3.00000000E-04
  1 485 3.00000000E-04
  1 486 3.00000000E-04
  1 487 3.00000000E-04
  1 488 3.00000000E-04
  1 489 3.00000000E-04
  1 490 3.00000000E-04
  1 491 3.00000000E-04
  1 492 3.00000000E-04
  1 493 3.00000000E-04
  1 494 3.00000000E-04
  1 495 3.00000000E-04
  1 496 3.00000000E-04
  1 497 3.00000000E-04
  1 498 3.00000000E-04
  1 499 3.00000000E-04
  1 500 3.00000000E-04
  1 501 3.00000000E-04
  1 502 3.00000000E-04
  1 503 3.00000000E-04
  1 504 3.00000000E-04
  1 505 3.00000000E-04
  1 506 3.00000000E-04
  1 507 3.00000000E-04
  1 508 3.00000000E-04
  1 509 3.00000000E-04
  1 510 3.00000000E-04
  1 511 3.00000000E-04
  1 512 3.00000000E-04
  1 513 3.00000000E-04
  1 514 3.00000000E-04
  1 515 3.00000000E-04
  1 516 3.00000000E-04
  1 517 3.00000000E-04
  1 518 3.00000000E-04
  1 519 3.00000000E-04
  1 520 3.00000000E-04
  1 521 3.00000000E-04
  1 522 3.00000000E-04
  1 523 3.00000000E-04
  1 524 3.00000000E-04
  1 525 3.00000000E-04
  1 526 3.00000000E-04
  1 527 3.00000000E-04
  1 528 3.00000000E-04
  1 529 3.00000000E-04
  1 530 3.00000000E-04
  1 531 3.00000000E-04
  1 532 3.00000000E-04
  1 533 3.00000000E-04
  1 534 3.00000000E-04
  1 535 3.00000000E-04
  1 536 3.00000000E-04
  1 537 3.00000000E-04
  1 538 3.00000000E-04
  1 539 3.00000000E-04
  1 540 3.00000000E-04
  1 541 3.00000000E-04
  1 542 3.00000000E-04
  1 543 3.00000000E-04
  1 544 3.00000000E-04
  1 545 3.00000000E-04
  1 546 3.00000000E-04
  1 547 3.00000000E-04
  1 548 3.00000000E-04
  1 549 3.00000000E-04
  1 550 3.00000000E-04
  1 551 3.00000000E-04
  1 552 3.00000000E-04
  1 553 3.00000000E-04
  1 554 3.00000000E-04
  1 555 3.00000000E-04
  1 556 3.00000000E-04
  1 557 3.00000000E-04
  1 558 3.00000000E-04
  1 559 3.00000000E-04
  1 560 3.00000000E-04
  1 561 3.00000000E-04
  1 562 3.00000000E-04
  1 563 3.00000000E-04
  1 564 3.00000000E-04
  1 565 3.00000000E-04
  1 566 3.00000000E-04
  1 567 3.00000000E-04
  1 568 3.00000000E-04
  1 569 3.00000000E-04
  1 570 3.00000000E-04
  1 571 3.00000000E-04
  1 572 3.00000000E-04
  1 573 3.00000000E-04
  1 574 3.00000000E-04
  1 575 3.00000000E-04
  1 576 3.00000000E-04
  1 577 3.00000000E-04
  1 578 3.00000000E-04
  1 579 3.00000000E-04
  1 580 3.00000000E-04
  1 581 3.00000000E-04
  1 582 3.00000000E-04
  1 583 3.00000000E-04
  1 584 3.00000000E-04
  1 585 3.00000000E-04
  1 586 3.00000000E-04
  1 587 3.00000000E-04
  1 588 3.00000000E-04
  1 589 3.00000000E-04
  1 590 3.00000000E-04
  1 591 3.00000000E-04
  1 592 3.00000000E-04
  1 593 3.00000000E-04
  1 594 3.00000000E-04
  1 595 3.00000000E-04
  1 596 3.00000000E-04
  1 597 3.00000000E-04
  1 598 3.00000000E-04
  1 599 3.00000000E-04
  1 600 3.00000000E-04
  1 601 3.00000000E-04
  1 602 3.00000000E-04
  1 603 3.00000000E-04
  1 604 3.00000000E-04
  1 605 3.00000000E-04
  1 606 3.00000000E-04
  1 607 3.00000000E-04
  1 608 3.00000000E-04
  1 609 3.00000000E-04
  1 610 3.00000000E-04
  1 611 3.00000000E-04
  1 612 3.00000000E-04
  1 613 3.00000000E-04
  1 614 3.00000000E-04
  1 615 3.00000000E-04
  1 616 3.00000000E-04
END period  1

