# File generated by Flopy version 3.5.0 on 01/17/2024 at 11:16:58.
BEGIN options
END options

BEGIN dimensions
  MAXBOUND  36
END dimensions

BEGIN period  1
  1 10 70 8.64000000E+00
  2 10 65 8.64000000E+00
  1 35 70 8.64000000E+00
  2 35 65 8.64000000E+00
  1 76 70 8.64000000E+00
  2 76 65 8.64000000E+00
  1 79 70 8.64000000E+00
  2 79 65 8.64000000E+00
  1 81 70 8.64000000E+00
  2 81 65 8.64000000E+00
  1 154 70 8.64000000E+00
  2 154 65 8.64000000E+00
  1 156 70 8.64000000E+00
  2 156 65 8.64000000E+00
  1 162 70 8.64000000E+00
  2 162 65 8.64000000E+00
  1 164 70 8.64000000E+00
  2 164 65 8.64000000E+00
  1 173 70 8.64000000E+00
  2 173 65 8.64000000E+00
  1 175 70 8.64000000E+00
  2 175 65 8.64000000E+00
  1 252 70 8.64000000E+00
  2 252 65 8.64000000E+00
  1 254 70 8.64000000E+00
  2 254 65 8.64000000E+00
  1 345 70 8.64000000E+00
  2 345 65 8.64000000E+00
  1 517 70 8.64000000E+00
  2 517 65 8.64000000E+00
  1 587 70 8.64000000E+00
  2 587 65 8.64000000E+00
  1 606 70 8.64000000E+00
  2 606 65 8.64000000E+00
  1 616 70 8.64000000E+00
  2 616 65 8.64000000E+00
END period  1

