# File generated by Flopy version 3.5.0 on 01/09/2024 at 14:04:24.
BEGIN options
END options

BEGIN dimensions
  MAXBOUND  15
END dimensions

BEGIN period  1
  1 10 70
  2 10 65
  1 35 70
  2 35 65
  1 76 70
  2 76 65
  1 79 70
  2 79 65
  1 81 70
  2 81 65
  1 154 70
  2 154 65
  1 156 70
  2 156 65
  1 162 70
  2 162 65
  1 164 70
  2 164 65
  1 173 70
  2 173 65
  1 175 70
  2 175 65
  1 252 70
  2 252 65
  1 254 70
  2 254 65
  1 345 70
  2 345 65
  1 517 70
  2 517 65
  1 587 70
  2 587 65
  1 606 70
  2 606 65
  1 616 70
  2 616 65
END period  1

