# File generated by Flopy version 3.5.0 on 01/17/2024 at 11:16:58.
BEGIN options
  BUDGET  FILEOUT  dummy.cbb
  HEAD  FILEOUT  dummy.hds
END options

BEGIN period  1
  SAVE  HEAD  ALL
  SAVE  BUDGET  ALL
  PRINT  HEAD  LAST
END period  1

