# File generated by Flopy version 3.5.0 on 01/17/2024 at 11:16:58.
BEGIN griddata
  strt  LAYERED
    INTERNAL  FACTOR  1.0
          85.00000000      85.00000000      85.00000000      85.00000000      85.00000000      85.00000000      85.00000000      85.00000000      85.00000000      85.00000000      85.00000000      85.00000000      85.00000000      85.00000000      85.00000000      85.00000000      85.00000000      85.00000000      85.00000000      85.00000000
          85.00000000      85.00000000      85.00000000      85.00000000      85.00000000      85.00000000      85.00000000      85.00000000      85.00000000      85.00000000      85.00000000      85.00000000      85.00000000      85.00000000      85.00000000      85.00000000      85.00000000      85.00000000      85.00000000      85.00000000
          85.00000000      85.00000000      85.00000000      85.00000000      85.00000000      85.00000000      85.00000000      85.00000000      85.00000000      85.00000000      85.00000000      85.00000000      85.00000000      85.00000000      85.00000000      85.00000000      85.00000000      85.00000000      85.00000000      85.00000000
          85.00000000      85.00000000      85.00000000      85.00000000      85.00000000      85.00000000      85.00000000      85.00000000      85.00000000      85.00000000      85.00000000      85.00000000      85.00000000      85.00000000      85.00000000      85.00000000      85.00000000      85.00000000      85.00000000      85.00000000
          85.00000000      85.00000000      85.00000000      85.00000000      85.00000000      85.00000000      85.00000000      85.00000000      85.00000000      85.00000000      85.00000000      85.00000000      85.00000000      85.00000000      85.00000000      85.00000000      85.00000000      85.00000000      85.00000000      85.00000000
          85.00000000      85.00000000      85.00000000      85.00000000      85.00000000      85.00000000      85.00000000      85.00000000      85.00000000      85.00000000      85.00000000      85.00000000      85.00000000      85.00000000      85.00000000      85.00000000      85.00000000      85.00000000      85.00000000      85.00000000
          85.00000000      85.00000000      85.00000000      85.00000000      85.00000000      85.00000000      85.00000000      85.00000000      85.00000000      85.00000000      85.00000000      85.00000000      85.00000000      85.00000000      85.00000000      85.00000000      85.00000000      85.00000000      85.00000000      85.00000000
          85.00000000      85.00000000      85.00000000      85.00000000      85.00000000      85.00000000      85.00000000      85.00000000      85.00000000      85.00000000      85.00000000      85.00000000      85.00000000      85.00000000      85.00000000      85.00000000      85.00000000      85.00000000      85.00000000      85.00000000
          85.00000000      85.00000000      85.00000000      85.00000000      85.00000000      85.00000000      85.00000000      85.00000000      85.00000000      85.00000000      85.00000000      85.00000000      85.00000000      85.00000000      85.00000000      85.00000000      85.00000000      85.00000000      85.00000000      85.00000000
          85.00000000      85.00000000      85.00000000      85.00000000      85.00000000      85.00000000      85.00000000      85.00000000      85.00000000      85.00000000      85.00000000      85.00000000      85.00000000      85.00000000      85.00000000      85.00000000      85.00000000      85.00000000      85.00000000      85.00000000
          85.00000000      85.00000000      85.00000000      85.00000000      85.00000000      85.00000000      85.00000000      85.00000000      85.00000000      85.00000000      85.00000000      85.00000000      85.00000000      85.00000000      85.00000000      85.00000000      85.00000000      85.00000000      85.00000000      85.00000000
          85.00000000      85.00000000      85.00000000      85.00000000      85.00000000      85.00000000      85.00000000      85.00000000      85.00000000      85.00000000      85.00000000      85.00000000      85.00000000      85.00000000      85.00000000      85.00000000      85.00000000      85.00000000      85.00000000      85.00000000
          85.00000000      85.00000000      85.00000000      85.00000000      85.00000000      85.00000000      85.00000000      85.00000000      85.00000000      85.00000000      85.00000000      85.00000000      85.00000000      85.00000000      85.00000000      85.00000000      85.00000000      85.00000000      85.00000000      85.00000000
          85.00000000      85.00000000      85.00000000      85.00000000      85.00000000      85.00000000      85.00000000      85.00000000      85.00000000      85.00000000      85.00000000      85.00000000      85.00000000      85.00000000      85.00000000      85.00000000      85.00000000      85.00000000      85.00000000      85.00000000
          85.00000000      85.00000000      85.00000000      85.00000000      85.00000000      85.00000000      85.00000000      85.00000000      85.00000000      85.00000000      85.00000000      85.00000000      85.00000000      85.00000000      85.00000000      85.00000000      85.00000000      85.00000000      85.00000000      85.00000000
          85.00000000      85.00000000      85.00000000      85.00000000      85.00000000      85.00000000      85.00000000      85.00000000      85.00000000      85.00000000      85.00000000      85.00000000      85.00000000      85.00000000      85.00000000      85.00000000      85.00000000      85.00000000      85.00000000      85.00000000
          85.00000000      85.00000000      85.00000000      85.00000000      85.00000000      85.00000000      85.00000000      85.00000000      85.00000000      85.00000000      85.00000000      85.00000000      85.00000000      85.00000000      85.00000000      85.00000000      85.00000000      85.00000000      85.00000000      85.00000000
          85.00000000      85.00000000      85.00000000      85.00000000      85.00000000      85.00000000      85.00000000      85.00000000      85.00000000      85.00000000      85.00000000      85.00000000      85.00000000      85.00000000      85.00000000      85.00000000      85.00000000      85.00000000      85.00000000      85.00000000
          85.00000000      85.00000000      85.00000000      85.00000000      85.00000000      85.00000000      85.00000000      85.00000000      85.00000000      85.00000000      85.00000000      85.00000000      85.00000000      85.00000000      85.00000000      85.00000000      85.00000000      85.00000000      85.00000000      85.00000000
          85.00000000      85.00000000      85.00000000      85.00000000      85.00000000      85.00000000      85.00000000      85.00000000      85.00000000      85.00000000      85.00000000      85.00000000      85.00000000      85.00000000      85.00000000      85.00000000      85.00000000      85.00000000      85.00000000      85.00000000
          85.00000000      85.00000000      85.00000000      85.00000000      85.00000000      85.00000000      85.00000000      85.00000000      85.00000000      85.00000000      85.00000000      85.00000000      85.00000000      85.00000000      85.00000000      85.00000000      85.00000000      85.00000000      85.00000000      85.00000000
          85.00000000      85.00000000      85.00000000      85.00000000      85.00000000      85.00000000      85.00000000      85.00000000      85.00000000      85.00000000      85.00000000      85.00000000      85.00000000      85.00000000      85.00000000      85.00000000      85.00000000      85.00000000      85.00000000      85.00000000
          85.00000000      85.00000000      85.00000000      85.00000000      85.00000000      85.00000000      85.00000000      85.00000000      85.00000000      85.00000000      85.00000000      85.00000000      85.00000000      85.00000000      85.00000000      85.00000000      85.00000000      85.00000000      85.00000000      85.00000000
          85.00000000      85.00000000      85.00000000      85.00000000      85.00000000      85.00000000      85.00000000      85.00000000      85.00000000      85.00000000      85.00000000      85.00000000      85.00000000      85.00000000      85.00000000      85.00000000      85.00000000      85.00000000      85.00000000      85.00000000
          85.00000000      85.00000000      85.00000000      85.00000000      85.00000000      85.00000000      85.00000000      85.00000000      85.00000000      85.00000000      85.00000000      85.00000000      85.00000000      85.00000000      85.00000000      85.00000000      85.00000000      85.00000000      85.00000000      85.00000000
          85.00000000      85.00000000      85.00000000      85.00000000      85.00000000      85.00000000      85.00000000      85.00000000      85.00000000      85.00000000      85.00000000      85.00000000      85.00000000      85.00000000      85.00000000      85.00000000      85.00000000      85.00000000      85.00000000      85.00000000
          85.00000000      85.00000000      85.00000000      85.00000000      85.00000000      85.00000000      85.00000000      85.00000000      85.00000000      85.00000000      85.00000000      85.00000000      85.00000000      85.00000000      85.00000000      85.00000000      85.00000000      85.00000000      85.00000000      85.00000000
          85.00000000      85.00000000      85.00000000      85.00000000      85.00000000      85.00000000      85.00000000      85.00000000      85.00000000      85.00000000      85.00000000      85.00000000      85.00000000      85.00000000      85.00000000      85.00000000      85.00000000      85.00000000      85.00000000      85.00000000
          85.00000000      85.00000000      85.00000000      85.00000000      85.00000000      85.00000000      85.00000000      85.00000000      85.00000000      85.00000000      85.00000000      85.00000000      85.00000000      85.00000000      85.00000000      85.00000000      85.00000000      85.00000000      85.00000000      85.00000000
          85.00000000      85.00000000      85.00000000      85.00000000      85.00000000      85.00000000      85.00000000      85.00000000      85.00000000      85.00000000      85.00000000      85.00000000      85.00000000      85.00000000      85.00000000      85.00000000      85.00000000      85.00000000      85.00000000      85.00000000
          85.00000000      85.00000000      85.00000000      85.00000000      85.00000000      85.00000000      85.00000000      85.00000000      85.00000000      85.00000000      85.00000000      85.00000000      85.00000000      85.00000000      85.00000000      85.00000000
    INTERNAL  FACTOR  1.0
          85.00000000      85.00000000      85.00000000      85.00000000      85.00000000      85.00000000      85.00000000      85.00000000      85.00000000      85.00000000      85.00000000      85.00000000      85.00000000      85.00000000      85.00000000      85.00000000      85.00000000      85.00000000      85.00000000      85.00000000
          85.00000000      85.00000000      85.00000000      85.00000000      85.00000000      85.00000000      85.00000000      85.00000000      85.00000000      85.00000000      85.00000000      85.00000000      85.00000000      85.00000000      85.00000000      85.00000000      85.00000000      85.00000000      85.00000000      85.00000000
          85.00000000      85.00000000      85.00000000      85.00000000      85.00000000      85.00000000      85.00000000      85.00000000      85.00000000      85.00000000      85.00000000      85.00000000      85.00000000      85.00000000      85.00000000      85.00000000      85.00000000      85.00000000      85.00000000      85.00000000
          85.00000000      85.00000000      85.00000000      85.00000000      85.00000000      85.00000000      85.00000000      85.00000000      85.00000000      85.00000000      85.00000000      85.00000000      85.00000000      85.00000000      85.00000000      85.00000000      85.00000000      85.00000000      85.00000000      85.00000000
          85.00000000      85.00000000      85.00000000      85.00000000      85.00000000      85.00000000      85.00000000      85.00000000      85.00000000      85.00000000      85.00000000      85.00000000      85.00000000      85.00000000      85.00000000      85.00000000      85.00000000      85.00000000      85.00000000      85.00000000
          85.00000000      85.00000000      85.00000000      85.00000000      85.00000000      85.00000000      85.00000000      85.00000000      85.00000000      85.00000000      85.00000000      85.00000000      85.00000000      85.00000000      85.00000000      85.00000000      85.00000000      85.00000000      85.00000000      85.00000000
          85.00000000      85.00000000      85.00000000      85.00000000      85.00000000      85.00000000      85.00000000      85.00000000      85.00000000      85.00000000      85.00000000      85.00000000      85.00000000      85.00000000      85.00000000      85.00000000      85.00000000      85.00000000      85.00000000      85.00000000
          85.00000000      85.00000000      85.00000000      85.00000000      85.00000000      85.00000000      85.00000000      85.00000000      85.00000000      85.00000000      85.00000000      85.00000000      85.00000000      85.00000000      85.00000000      85.00000000      85.00000000      85.00000000      85.00000000      85.00000000
          85.00000000      85.00000000      85.00000000      85.00000000      85.00000000      85.00000000      85.00000000      85.00000000      85.00000000      85.00000000      85.00000000      85.00000000      85.00000000      85.00000000      85.00000000      85.00000000      85.00000000      85.00000000      85.00000000      85.00000000
          85.00000000      85.00000000      85.00000000      85.00000000      85.00000000      85.00000000      85.00000000      85.00000000      85.00000000      85.00000000      85.00000000      85.00000000      85.00000000      85.00000000      85.00000000      85.00000000      85.00000000      85.00000000      85.00000000      85.00000000
          85.00000000      85.00000000      85.00000000      85.00000000      85.00000000      85.00000000      85.00000000      85.00000000      85.00000000      85.00000000      85.00000000      85.00000000      85.00000000      85.00000000      85.00000000      85.00000000      85.00000000      85.00000000      85.00000000      85.00000000
          85.00000000      85.00000000      85.00000000      85.00000000      85.00000000      85.00000000      85.00000000      85.00000000      85.00000000      85.00000000      85.00000000      85.00000000      85.00000000      85.00000000      85.00000000      85.00000000      85.00000000      85.00000000      85.00000000      85.00000000
          85.00000000      85.00000000      85.00000000      85.00000000      85.00000000      85.00000000      85.00000000      85.00000000      85.00000000      85.00000000      85.00000000      85.00000000      85.00000000      85.00000000      85.00000000      85.00000000      85.00000000      85.00000000      85.00000000      85.00000000
          85.00000000      85.00000000      85.00000000      85.00000000      85.00000000      85.00000000      85.00000000      85.00000000      85.00000000      85.00000000      85.00000000      85.00000000      85.00000000      85.00000000      85.00000000      85.00000000      85.00000000      85.00000000      85.00000000      85.00000000
          85.00000000      85.00000000      85.00000000      85.00000000      85.00000000      85.00000000      85.00000000      85.00000000      85.00000000      85.00000000      85.00000000      85.00000000      85.00000000      85.00000000      85.00000000      85.00000000      85.00000000      85.00000000      85.00000000      85.00000000
          85.00000000      85.00000000      85.00000000      85.00000000      85.00000000      85.00000000      85.00000000      85.00000000      85.00000000      85.00000000      85.00000000      85.00000000      85.00000000      85.00000000      85.00000000      85.00000000      85.00000000      85.00000000      85.00000000      85.00000000
          85.00000000      85.00000000      85.00000000      85.00000000      85.00000000      85.00000000      85.00000000      85.00000000      85.00000000      85.00000000      85.00000000      85.00000000      85.00000000      85.00000000      85.00000000      85.00000000      85.00000000      85.00000000      85.00000000      85.00000000
          85.00000000      85.00000000      85.00000000      85.00000000      85.00000000      85.00000000      85.00000000      85.00000000      85.00000000      85.00000000      85.00000000      85.00000000      85.00000000      85.00000000      85.00000000      85.00000000      85.00000000      85.00000000      85.00000000      85.00000000
          85.00000000      85.00000000      85.00000000      85.00000000      85.00000000      85.00000000      85.00000000      85.00000000      85.00000000      85.00000000      85.00000000      85.00000000      85.00000000      85.00000000      85.00000000      85.00000000      85.00000000      85.00000000      85.00000000      85.00000000
          85.00000000      85.00000000      85.00000000      85.00000000      85.00000000      85.00000000      85.00000000      85.00000000      85.00000000      85.00000000      85.00000000      85.00000000      85.00000000      85.00000000      85.00000000      85.00000000      85.00000000      85.00000000      85.00000000      85.00000000
          85.00000000      85.00000000      85.00000000      85.00000000      85.00000000      85.00000000      85.00000000      85.00000000      85.00000000      85.00000000      85.00000000      85.00000000      85.00000000      85.00000000      85.00000000      85.00000000      85.00000000      85.00000000      85.00000000      85.00000000
          85.00000000      85.00000000      85.00000000      85.00000000      85.00000000      85.00000000      85.00000000      85.00000000      85.00000000      85.00000000      85.00000000      85.00000000      85.00000000      85.00000000      85.00000000      85.00000000      85.00000000      85.00000000      85.00000000      85.00000000
          85.00000000      85.00000000      85.00000000      85.00000000      85.00000000      85.00000000      85.00000000      85.00000000      85.00000000      85.00000000      85.00000000      85.00000000      85.00000000      85.00000000      85.00000000      85.00000000      85.00000000      85.00000000      85.00000000      85.00000000
          85.00000000      85.00000000      85.00000000      85.00000000      85.00000000      85.00000000      85.00000000      85.00000000      85.00000000      85.00000000      85.00000000      85.00000000      85.00000000      85.00000000      85.00000000      85.00000000      85.00000000      85.00000000      85.00000000      85.00000000
          85.00000000      85.00000000      85.00000000      85.00000000      85.00000000      85.00000000      85.00000000      85.00000000      85.00000000      85.00000000      85.00000000      85.00000000      85.00000000      85.00000000      85.00000000      85.00000000      85.00000000      85.00000000      85.00000000      85.00000000
          85.00000000      85.00000000      85.00000000      85.00000000      85.00000000      85.00000000      85.00000000      85.00000000      85.00000000      85.00000000      85.00000000      85.00000000      85.00000000      85.00000000      85.00000000      85.00000000      85.00000000      85.00000000      85.00000000      85.00000000
          85.00000000      85.00000000      85.00000000      85.00000000      85.00000000      85.00000000      85.00000000      85.00000000      85.00000000      85.00000000      85.00000000      85.00000000      85.00000000      85.00000000      85.00000000      85.00000000      85.00000000      85.00000000      85.00000000      85.00000000
          85.00000000      85.00000000      85.00000000      85.00000000      85.00000000      85.00000000      85.00000000      85.00000000      85.00000000      85.00000000      85.00000000      85.00000000      85.00000000      85.00000000      85.00000000      85.00000000      85.00000000      85.00000000      85.00000000      85.00000000
          85.00000000      85.00000000      85.00000000      85.00000000      85.00000000      85.00000000      85.00000000      85.00000000      85.00000000      85.00000000      85.00000000      85.00000000      85.00000000      85.00000000      85.00000000      85.00000000      85.00000000      85.00000000      85.00000000      85.00000000
          85.00000000      85.00000000      85.00000000      85.00000000      85.00000000      85.00000000      85.00000000      85.00000000      85.00000000      85.00000000      85.00000000      85.00000000      85.00000000      85.00000000      85.00000000      85.00000000      85.00000000      85.00000000      85.00000000      85.00000000
          85.00000000      85.00000000      85.00000000      85.00000000      85.00000000      85.00000000      85.00000000      85.00000000      85.00000000      85.00000000      85.00000000      85.00000000      85.00000000      85.00000000      85.00000000      85.00000000
END griddata

