# File generated by Flopy version 3.5.0 on 01/17/2024 at 11:16:58.
BEGIN options
END options

BEGIN dimensions
  MAXBOUND  98
END dimensions

BEGIN period  1
  1 353 9.48000000E+01 8.64000000E+00 9.28000000E+01
  1 354 9.46000000E+01 8.64000000E+00 9.26000000E+01
  1 363 9.44000000E+01 8.64000000E+00 9.24000000E+01
  1 364 9.42000000E+01 8.64000000E+00 9.22000000E+01
  1 369 9.40000000E+01 8.64000000E+00 9.20000000E+01
  1 370 9.38000000E+01 8.64000000E+00 9.18000000E+01
  1 373 9.36000000E+01 8.64000000E+00 9.16000000E+01
  1 376 9.34000000E+01 8.64000000E+00 9.14000000E+01
  1 385 9.32000000E+01 8.64000000E+00 9.12000000E+01
  1 386 9.30000000E+01 8.64000000E+00 9.10000000E+01
  1 388 9.28000000E+01 8.64000000E+00 9.08000000E+01
  1 389 9.26000000E+01 8.64000000E+00 9.06000000E+01
  1 398 9.24000000E+01 8.64000000E+00 9.04000000E+01
  1 399 9.22000000E+01 8.64000000E+00 9.02000000E+01
  1 400 9.20000000E+01 8.64000000E+00 9.00000000E+01
  1 401 9.18000000E+01 8.64000000E+00 8.98000000E+01
  1 421 9.16000000E+01 8.64000000E+00 8.96000000E+01
  1 422 9.14000000E+01 8.64000000E+00 8.94000000E+01
  1 424 9.12000000E+01 8.64000000E+00 8.92000000E+01
  1 425 9.10000000E+01 8.64000000E+00 8.90000000E+01
  1 429 9.08000000E+01 8.64000000E+00 8.88000000E+01
  1 430 9.06000000E+01 8.64000000E+00 8.86000000E+01
  1 433 9.04000000E+01 8.64000000E+00 8.84000000E+01
  1 434 9.02000000E+01 8.64000000E+00 8.82000000E+01
  1 443 9.00000000E+01 8.64000000E+00 8.80000000E+01
  1 444 8.98000000E+01 8.64000000E+00 8.78000000E+01
  1 447 8.96000000E+01 8.64000000E+00 8.76000000E+01
  1 448 8.94000000E+01 8.64000000E+00 8.74000000E+01
  1 454 8.92000000E+01 8.64000000E+00 8.72000000E+01
  1 455 8.90000000E+01 8.64000000E+00 8.70000000E+01
  1 458 8.88000000E+01 8.64000000E+00 8.68000000E+01
  1 459 8.86000000E+01 8.64000000E+00 8.66000000E+01
  1 475 8.84000000E+01 8.64000000E+00 8.64000000E+01
  1 476 8.82000000E+01 8.64000000E+00 8.62000000E+01
  1 479 8.80000000E+01 8.64000000E+00 8.60000000E+01
  1 480 8.78000000E+01 8.64000000E+00 8.58000000E+01
  1 486 8.76000000E+01 8.64000000E+00 8.56000000E+01
  1 487 8.74000000E+01 8.64000000E+00 8.54000000E+01
  1 490 8.72000000E+01 8.64000000E+00 8.52000000E+01
  1 491 8.70000000E+01 8.64000000E+00 8.50000000E+01
  1 195 8.68000000E+01 8.64000000E+00 8.48000000E+01
  1 203 8.66000000E+01 8.64000000E+00 8.46000000E+01
  1 204 8.64000000E+01 8.64000000E+00 8.44000000E+01
  1 205 8.62000000E+01 8.64000000E+00 8.42000000E+01
  1 207 8.60000000E+01 8.64000000E+00 8.40000000E+01
  1 208 8.58000000E+01 8.64000000E+00 8.38000000E+01
  1 209 8.56000000E+01 8.64000000E+00 8.36000000E+01
  1 210 8.54000000E+01 8.64000000E+00 8.34000000E+01
  1 214 8.52000000E+01 8.64000000E+00 8.32000000E+01
  1 222 8.50000000E+01 8.64000000E+00 8.30000000E+01
  1 223 8.48000000E+01 8.64000000E+00 8.28000000E+01
  1 224 8.46000000E+01 8.64000000E+00 8.26000000E+01
  1 225 8.44000000E+01 8.64000000E+00 8.24000000E+01
  1 227 8.42000000E+01 8.64000000E+00 8.22000000E+01
  1 228 8.40000000E+01 8.64000000E+00 8.20000000E+01
  1 229 8.38000000E+01 8.64000000E+00 8.18000000E+01
  1 295 8.36000000E+01 8.64000000E+00 8.16000000E+01
  1 299 8.34000000E+01 8.64000000E+00 8.14000000E+01
  1 300 8.32000000E+01 8.64000000E+00 8.12000000E+01
  1 301 8.30000000E+01 8.64000000E+00 8.10000000E+01
  1 302 8.28000000E+01 8.64000000E+00 8.08000000E+01
  1 306 8.26000000E+01 8.64000000E+00 8.06000000E+01
  1 307 8.24000000E+01 8.64000000E+00 8.04000000E+01
  1 308 8.22000000E+01 8.64000000E+00 8.02000000E+01
  1 310 8.20000000E+01 8.64000000E+00 8.00000000E+01
  1 311 8.18000000E+01 8.64000000E+00 7.98000000E+01
  1 312 8.16000000E+01 8.64000000E+00 7.96000000E+01
  1 313 8.14000000E+01 8.64000000E+00 7.94000000E+01
  1 317 8.12000000E+01 8.64000000E+00 7.92000000E+01
  1 324 8.10000000E+01 8.64000000E+00 7.90000000E+01
  1 325 8.08000000E+01 8.64000000E+00 7.88000000E+01
  1 326 8.06000000E+01 8.64000000E+00 7.86000000E+01
  1 105 8.04000000E+01 8.64000000E+00 7.84000000E+01
  1 106 8.02000000E+01 8.64000000E+00 7.82000000E+01
  1 108 8.00000000E+01 8.64000000E+00 7.80000000E+01
  1 109 7.98000000E+01 8.64000000E+00 7.78000000E+01
  1 110 7.96000000E+01 8.64000000E+00 7.76000000E+01
  1 122 7.94000000E+01 8.64000000E+00 7.74000000E+01
  1 123 7.92000000E+01 8.64000000E+00 7.72000000E+01
  1 124 7.90000000E+01 8.64000000E+00 7.70000000E+01
  1 125 7.88000000E+01 8.64000000E+00 7.68000000E+01
  1 128 7.86000000E+01 8.64000000E+00 7.66000000E+01
  1 133 7.84000000E+01 8.64000000E+00 7.64000000E+01
  1 134 7.82000000E+01 8.64000000E+00 7.62000000E+01
  1 135 7.80000000E+01 8.64000000E+00 7.60000000E+01
  1 136 7.78000000E+01 8.64000000E+00 7.58000000E+01
  1 137 7.76000000E+01 8.64000000E+00 7.56000000E+01
  1 146 7.74000000E+01 8.64000000E+00 7.54000000E+01
  1 147 7.72000000E+01 8.64000000E+00 7.52000000E+01
  1 149 7.70000000E+01 8.64000000E+00 7.50000000E+01
  1 150 7.68000000E+01 8.64000000E+00 7.48000000E+01
  1 151 7.66000000E+01 8.64000000E+00 7.46000000E+01
  1 155 7.64000000E+01 8.64000000E+00 7.44000000E+01
  1 156 7.62000000E+01 8.64000000E+00 7.42000000E+01
  1 157 7.60000000E+01 8.64000000E+00 7.40000000E+01
  1 158 7.58000000E+01 8.64000000E+00 7.38000000E+01
  1 161 7.56000000E+01 8.64000000E+00 7.36000000E+01
  1 165 7.54000000E+01 8.64000000E+00 7.34000000E+01
END period  1

