# File generated by Flopy version 3.5.0 on 01/17/2024 at 11:16:58.
BEGIN options
  LENGTH_UNITS  meters
  XORIGIN       0.00000000
  YORIGIN       0.00000000
  ANGROT       0.00000000
END options

BEGIN dimensions
  NLAY  2
  NCPL  616
  NVERT  774
END dimensions

BEGIN griddata
  top
    INTERNAL  FACTOR  1.0
       100.00000000     100.00000000     100.00000000     100.00000000     100.00000000     100.00000000     100.00000000     100.00000000     100.00000000     100.00000000     100.00000000     100.00000000     100.00000000     100.00000000     100.00000000     100.00000000     100.00000000     100.00000000     100.00000000     100.00000000
       100.00000000     100.00000000     100.00000000     100.00000000     100.00000000     100.00000000     100.00000000     100.00000000     100.00000000     100.00000000     100.00000000     100.00000000     100.00000000     100.00000000     100.00000000     100.00000000     100.00000000     100.00000000     100.00000000     100.00000000
       100.00000000     100.00000000     100.00000000     100.00000000     100.00000000     100.00000000     100.00000000     100.00000000     100.00000000     100.00000000     100.00000000     100.00000000     100.00000000     100.00000000     100.00000000     100.00000000     100.00000000     100.00000000     100.00000000     100.00000000
       100.00000000     100.00000000     100.00000000     100.00000000     100.00000000     100.00000000     100.00000000     100.00000000     100.00000000     100.00000000     100.00000000     100.00000000     100.00000000     100.00000000     100.00000000     100.00000000     100.00000000     100.00000000     100.00000000     100.00000000
       100.00000000     100.00000000     100.00000000     100.00000000     100.00000000     100.00000000     100.00000000     100.00000000     100.00000000     100.00000000     100.00000000     100.00000000     100.00000000     100.00000000     100.00000000     100.00000000     100.00000000     100.00000000     100.00000000     100.00000000
       100.00000000     100.00000000     100.00000000     100.00000000     100.00000000     100.00000000     100.00000000     100.00000000     100.00000000     100.00000000     100.00000000     100.00000000     100.00000000     100.00000000     100.00000000     100.00000000     100.00000000     100.00000000     100.00000000     100.00000000
       100.00000000     100.00000000     100.00000000     100.00000000     100.00000000     100.00000000     100.00000000     100.00000000     100.00000000     100.00000000     100.00000000     100.00000000     100.00000000     100.00000000     100.00000000     100.00000000     100.00000000     100.00000000     100.00000000     100.00000000
       100.00000000     100.00000000     100.00000000     100.00000000     100.00000000     100.00000000     100.00000000     100.00000000     100.00000000     100.00000000     100.00000000     100.00000000     100.00000000     100.00000000     100.00000000     100.00000000     100.00000000     100.00000000     100.00000000     100.00000000
       100.00000000     100.00000000     100.00000000     100.00000000     100.00000000     100.00000000     100.00000000     100.00000000     100.00000000     100.00000000     100.00000000     100.00000000     100.00000000     100.00000000     100.00000000     100.00000000     100.00000000     100.00000000     100.00000000     100.00000000
       100.00000000     100.00000000     100.00000000     100.00000000     100.00000000     100.00000000     100.00000000     100.00000000     100.00000000     100.00000000     100.00000000     100.00000000     100.00000000     100.00000000     100.00000000     100.00000000     100.00000000     100.00000000     100.00000000     100.00000000
       100.00000000     100.00000000     100.00000000     100.00000000     100.00000000     100.00000000     100.00000000     100.00000000     100.00000000     100.00000000     100.00000000     100.00000000     100.00000000     100.00000000     100.00000000     100.00000000     100.00000000     100.00000000     100.00000000     100.00000000
       100.00000000     100.00000000     100.00000000     100.00000000     100.00000000     100.00000000     100.00000000     100.00000000     100.00000000     100.00000000     100.00000000     100.00000000     100.00000000     100.00000000     100.00000000     100.00000000     100.00000000     100.00000000     100.00000000     100.00000000
       100.00000000     100.00000000     100.00000000     100.00000000     100.00000000     100.00000000     100.00000000     100.00000000     100.00000000     100.00000000     100.00000000     100.00000000     100.00000000     100.00000000     100.00000000     100.00000000     100.00000000     100.00000000     100.00000000     100.00000000
       100.00000000     100.00000000     100.00000000     100.00000000     100.00000000     100.00000000     100.00000000     100.00000000     100.00000000     100.00000000     100.00000000     100.00000000     100.00000000     100.00000000     100.00000000     100.00000000     100.00000000     100.00000000     100.00000000     100.00000000
       100.00000000     100.00000000     100.00000000     100.00000000     100.00000000     100.00000000     100.00000000     100.00000000     100.00000000     100.00000000     100.00000000     100.00000000     100.00000000     100.00000000     100.00000000     100.00000000     100.00000000     100.00000000     100.00000000     100.00000000
       100.00000000     100.00000000     100.00000000     100.00000000     100.00000000     100.00000000     100.00000000     100.00000000     100.00000000     100.00000000     100.00000000     100.00000000     100.00000000     100.00000000     100.00000000     100.00000000     100.00000000     100.00000000     100.00000000     100.00000000
       100.00000000     100.00000000     100.00000000     100.00000000     100.00000000     100.00000000     100.00000000     100.00000000     100.00000000     100.00000000     100.00000000     100.00000000     100.00000000     100.00000000     100.00000000     100.00000000     100.00000000     100.00000000     100.00000000     100.00000000
       100.00000000     100.00000000     100.00000000     100.00000000     100.00000000     100.00000000     100.00000000     100.00000000     100.00000000     100.00000000     100.00000000     100.00000000     100.00000000     100.00000000     100.00000000     100.00000000     100.00000000     100.00000000     100.00000000     100.00000000
       100.00000000     100.00000000     100.00000000     100.00000000     100.00000000     100.00000000     100.00000000     100.00000000     100.00000000     100.00000000     100.00000000     100.00000000     100.00000000     100.00000000     100.00000000     100.00000000     100.00000000     100.00000000     100.00000000     100.00000000
       100.00000000     100.00000000     100.00000000     100.00000000     100.00000000     100.00000000     100.00000000     100.00000000     100.00000000     100.00000000     100.00000000     100.00000000     100.00000000     100.00000000     100.00000000     100.00000000     100.00000000     100.00000000     100.00000000     100.00000000
       100.00000000     100.00000000     100.00000000     100.00000000     100.00000000     100.00000000     100.00000000     100.00000000     100.00000000     100.00000000     100.00000000     100.00000000     100.00000000     100.00000000     100.00000000     100.00000000     100.00000000     100.00000000     100.00000000     100.00000000
       100.00000000     100.00000000     100.00000000     100.00000000     100.00000000     100.00000000     100.00000000     100.00000000     100.00000000     100.00000000     100.00000000     100.00000000     100.00000000     100.00000000     100.00000000     100.00000000     100.00000000     100.00000000     100.00000000     100.00000000
       100.00000000     100.00000000     100.00000000     100.00000000     100.00000000     100.00000000     100.00000000     100.00000000     100.00000000     100.00000000     100.00000000     100.00000000     100.00000000     100.00000000     100.00000000     100.00000000     100.00000000     100.00000000     100.00000000     100.00000000
       100.00000000     100.00000000     100.00000000     100.00000000     100.00000000     100.00000000     100.00000000     100.00000000     100.00000000     100.00000000     100.00000000     100.00000000     100.00000000     100.00000000     100.00000000     100.00000000     100.00000000     100.00000000     100.00000000     100.00000000
       100.00000000     100.00000000     100.00000000     100.00000000     100.00000000     100.00000000     100.00000000     100.00000000     100.00000000     100.00000000     100.00000000     100.00000000     100.00000000     100.00000000     100.00000000     100.00000000     100.00000000     100.00000000     100.00000000     100.00000000
       100.00000000     100.00000000     100.00000000     100.00000000     100.00000000     100.00000000     100.00000000     100.00000000     100.00000000     100.00000000     100.00000000     100.00000000     100.00000000     100.00000000     100.00000000     100.00000000     100.00000000     100.00000000     100.00000000     100.00000000
       100.00000000     100.00000000     100.00000000     100.00000000     100.00000000     100.00000000     100.00000000     100.00000000     100.00000000     100.00000000     100.00000000     100.00000000     100.00000000     100.00000000     100.00000000     100.00000000     100.00000000     100.00000000     100.00000000     100.00000000
       100.00000000     100.00000000     100.00000000     100.00000000     100.00000000     100.00000000     100.00000000     100.00000000     100.00000000     100.00000000     100.00000000     100.00000000     100.00000000     100.00000000     100.00000000     100.00000000     100.00000000     100.00000000     100.00000000     100.00000000
       100.00000000     100.00000000     100.00000000     100.00000000     100.00000000     100.00000000     100.00000000     100.00000000     100.00000000     100.00000000     100.00000000     100.00000000     100.00000000     100.00000000     100.00000000     100.00000000     100.00000000     100.00000000     100.00000000     100.00000000
       100.00000000     100.00000000     100.00000000     100.00000000     100.00000000     100.00000000     100.00000000     100.00000000     100.00000000     100.00000000     100.00000000     100.00000000     100.00000000     100.00000000     100.00000000     100.00000000     100.00000000     100.00000000     100.00000000     100.00000000
       100.00000000     100.00000000     100.00000000     100.00000000     100.00000000     100.00000000     100.00000000     100.00000000     100.00000000     100.00000000     100.00000000     100.00000000     100.00000000     100.00000000     100.00000000     100.00000000
  botm  LAYERED
    INTERNAL  FACTOR  1.0
          75.00000000      75.00000000      75.00000000      75.00000000      75.00000000      75.00000000      75.00000000      75.00000000      75.00000000      75.00000000      75.00000000      75.00000000      75.00000000      75.00000000      75.00000000      75.00000000      75.00000000      75.00000000      75.00000000      75.00000000
          75.00000000      75.00000000      75.00000000      75.00000000      75.00000000      75.00000000      75.00000000      75.00000000      75.00000000      75.00000000      75.00000000      75.00000000      75.00000000      75.00000000      75.00000000      75.00000000      75.00000000      75.00000000      75.00000000      75.00000000
          75.00000000      75.00000000      75.00000000      75.00000000      75.00000000      75.00000000      75.00000000      75.00000000      75.00000000      75.00000000      75.00000000      75.00000000      75.00000000      75.00000000      75.00000000      75.00000000      75.00000000      75.00000000      75.00000000      75.00000000
          75.00000000      75.00000000      75.00000000      75.00000000      75.00000000      75.00000000      75.00000000      75.00000000      75.00000000      75.00000000      75.00000000      75.00000000      75.00000000      75.00000000      75.00000000      75.00000000      75.00000000      75.00000000      75.00000000      75.00000000
          75.00000000      75.00000000      75.00000000      75.00000000      75.00000000      75.00000000      75.00000000      75.00000000      75.00000000      75.00000000      75.00000000      75.00000000      75.00000000      75.00000000      75.00000000      75.00000000      75.00000000      75.00000000      75.00000000      75.00000000
          75.00000000      75.00000000      75.00000000      75.00000000      75.00000000      75.00000000      75.00000000      75.00000000      75.00000000      75.00000000      75.00000000      75.00000000      75.00000000      75.00000000      75.00000000      75.00000000      75.00000000      75.00000000      75.00000000      75.00000000
          75.00000000      75.00000000      75.00000000      75.00000000      75.00000000      75.00000000      75.00000000      75.00000000      75.00000000      75.00000000      75.00000000      75.00000000      75.00000000      75.00000000      75.00000000      75.00000000      75.00000000      75.00000000      75.00000000      75.00000000
          75.00000000      75.00000000      75.00000000      75.00000000      75.00000000      75.00000000      75.00000000      75.00000000      75.00000000      75.00000000      75.00000000      75.00000000      75.00000000      75.00000000      75.00000000      75.00000000      75.00000000      75.00000000      75.00000000      75.00000000
          75.00000000      75.00000000      75.00000000      75.00000000      75.00000000      75.00000000      75.00000000      75.00000000      75.00000000      75.00000000      75.00000000      75.00000000      75.00000000      75.00000000      75.00000000      75.00000000      75.00000000      75.00000000      75.00000000      75.00000000
          75.00000000      75.00000000      75.00000000      75.00000000      75.00000000      75.00000000      75.00000000      75.00000000      75.00000000      75.00000000      75.00000000      75.00000000      75.00000000      75.00000000      75.00000000      75.00000000      75.00000000      75.00000000      75.00000000      75.00000000
          75.00000000      75.00000000      75.00000000      75.00000000      75.00000000      75.00000000      75.00000000      75.00000000      75.00000000      75.00000000      75.00000000      75.00000000      75.00000000      75.00000000      75.00000000      75.00000000      75.00000000      75.00000000      75.00000000      75.00000000
          75.00000000      75.00000000      75.00000000      75.00000000      75.00000000      75.00000000      75.00000000      75.00000000      75.00000000      75.00000000      75.00000000      75.00000000      75.00000000      75.00000000      75.00000000      75.00000000      75.00000000      75.00000000      75.00000000      75.00000000
          75.00000000      75.00000000      75.00000000      75.00000000      75.00000000      75.00000000      75.00000000      75.00000000      75.00000000      75.00000000      75.00000000      75.00000000      75.00000000      75.00000000      75.00000000      75.00000000      75.00000000      75.00000000      75.00000000      75.00000000
          75.00000000      75.00000000      75.00000000      75.00000000      75.00000000      75.00000000      75.00000000      75.00000000      75.00000000      75.00000000      75.00000000      75.00000000      75.00000000      75.00000000      75.00000000      75.00000000      75.00000000      75.00000000      75.00000000      75.00000000
          75.00000000      75.00000000      75.00000000      75.00000000      75.00000000      75.00000000      75.00000000      75.00000000      75.00000000      75.00000000      75.00000000      75.00000000      75.00000000      75.00000000      75.00000000      75.00000000      75.00000000      75.00000000      75.00000000      75.00000000
          75.00000000      75.00000000      75.00000000      75.00000000      75.00000000      75.00000000      75.00000000      75.00000000      75.00000000      75.00000000      75.00000000      75.00000000      75.00000000      75.00000000      75.00000000      75.00000000      75.00000000      75.00000000      75.00000000      75.00000000
          75.00000000      75.00000000      75.00000000      75.00000000      75.00000000      75.00000000      75.00000000      75.00000000      75.00000000      75.00000000      75.00000000      75.00000000      75.00000000      75.00000000      75.00000000      75.00000000      75.00000000      75.00000000      75.00000000      75.00000000
          75.00000000      75.00000000      75.00000000      75.00000000      75.00000000      75.00000000      75.00000000      75.00000000      75.00000000      75.00000000      75.00000000      75.00000000      75.00000000      75.00000000      75.00000000      75.00000000      75.00000000      75.00000000      75.00000000      75.00000000
          75.00000000      75.00000000      75.00000000      75.00000000      75.00000000      75.00000000      75.00000000      75.00000000      75.00000000      75.00000000      75.00000000      75.00000000      75.00000000      75.00000000      75.00000000      75.00000000      75.00000000      75.00000000      75.00000000      75.00000000
          75.00000000      75.00000000      75.00000000      75.00000000      75.00000000      75.00000000      75.00000000      75.00000000      75.00000000      75.00000000      75.00000000      75.00000000      75.00000000      75.00000000      75.00000000      75.00000000      75.00000000      75.00000000      75.00000000      75.00000000
          75.00000000      75.00000000      75.00000000      75.00000000      75.00000000      75.00000000      75.00000000      75.00000000      75.00000000      75.00000000      75.00000000      75.00000000      75.00000000      75.00000000      75.00000000      75.00000000      75.00000000      75.00000000      75.00000000      75.00000000
          75.00000000      75.00000000      75.00000000      75.00000000      75.00000000      75.00000000      75.00000000      75.00000000      75.00000000      75.00000000      75.00000000      75.00000000      75.00000000      75.00000000      75.00000000      75.00000000      75.00000000      75.00000000      75.00000000      75.00000000
          75.00000000      75.00000000      75.00000000      75.00000000      75.00000000      75.00000000      75.00000000      75.00000000      75.00000000      75.00000000      75.00000000      75.00000000      75.00000000      75.00000000      75.00000000      75.00000000      75.00000000      75.00000000      75.00000000      75.00000000
          75.00000000      75.00000000      75.00000000      75.00000000      75.00000000      75.00000000      75.00000000      75.00000000      75.00000000      75.00000000      75.00000000      75.00000000      75.00000000      75.00000000      75.00000000      75.00000000      75.00000000      75.00000000      75.00000000      75.00000000
          75.00000000      75.00000000      75.00000000      75.00000000      75.00000000      75.00000000      75.00000000      75.00000000      75.00000000      75.00000000      75.00000000      75.00000000      75.00000000      75.00000000      75.00000000      75.00000000      75.00000000      75.00000000      75.00000000      75.00000000
          75.00000000      75.00000000      75.00000000      75.00000000      75.00000000      75.00000000      75.00000000      75.00000000      75.00000000      75.00000000      75.00000000      75.00000000      75.00000000      75.00000000      75.00000000      75.00000000      75.00000000      75.00000000      75.00000000      75.00000000
          75.00000000      75.00000000      75.00000000      75.00000000      75.00000000      75.00000000      75.00000000      75.00000000      75.00000000      75.00000000      75.00000000      75.00000000      75.00000000      75.00000000      75.00000000      75.00000000      75.00000000      75.00000000      75.00000000      75.00000000
          75.00000000      75.00000000      75.00000000      75.00000000      75.00000000      75.00000000      75.00000000      75.00000000      75.00000000      75.00000000      75.00000000      75.00000000      75.00000000      75.00000000      75.00000000      75.00000000      75.00000000      75.00000000      75.00000000      75.00000000
          75.00000000      75.00000000      75.00000000      75.00000000      75.00000000      75.00000000      75.00000000      75.00000000      75.00000000      75.00000000      75.00000000      75.00000000      75.00000000      75.00000000      75.00000000      75.00000000      75.00000000      75.00000000      75.00000000      75.00000000
          75.00000000      75.00000000      75.00000000      75.00000000      75.00000000      75.00000000      75.00000000      75.00000000      75.00000000      75.00000000      75.00000000      75.00000000      75.00000000      75.00000000      75.00000000      75.00000000      75.00000000      75.00000000      75.00000000      75.00000000
          75.00000000      75.00000000      75.00000000      75.00000000      75.00000000      75.00000000      75.00000000      75.00000000      75.00000000      75.00000000      75.00000000      75.00000000      75.00000000      75.00000000      75.00000000      75.00000000
    INTERNAL  FACTOR  1.0
          50.00000000      50.00000000      50.00000000      50.00000000      50.00000000      50.00000000      50.00000000      50.00000000      50.00000000      50.00000000      50.00000000      50.00000000      50.00000000      50.00000000      50.00000000      50.00000000      50.00000000      50.00000000      50.00000000      50.00000000
          50.00000000      50.00000000      50.00000000      50.00000000      50.00000000      50.00000000      50.00000000      50.00000000      50.00000000      50.00000000      50.00000000      50.00000000      50.00000000      50.00000000      50.00000000      50.00000000      50.00000000      50.00000000      50.00000000      50.00000000
          50.00000000      50.00000000      50.00000000      50.00000000      50.00000000      50.00000000      50.00000000      50.00000000      50.00000000      50.00000000      50.00000000      50.00000000      50.00000000      50.00000000      50.00000000      50.00000000      50.00000000      50.00000000      50.00000000      50.00000000
          50.00000000      50.00000000      50.00000000      50.00000000      50.00000000      50.00000000      50.00000000      50.00000000      50.00000000      50.00000000      50.00000000      50.00000000      50.00000000      50.00000000      50.00000000      50.00000000      50.00000000      50.00000000      50.00000000      50.00000000
          50.00000000      50.00000000      50.00000000      50.00000000      50.00000000      50.00000000      50.00000000      50.00000000      50.00000000      50.00000000      50.00000000      50.00000000      50.00000000      50.00000000      50.00000000      50.00000000      50.00000000      50.00000000      50.00000000      50.00000000
          50.00000000      50.00000000      50.00000000      50.00000000      50.00000000      50.00000000      50.00000000      50.00000000      50.00000000      50.00000000      50.00000000      50.00000000      50.00000000      50.00000000      50.00000000      50.00000000      50.00000000      50.00000000      50.00000000      50.00000000
          50.00000000      50.00000000      50.00000000      50.00000000      50.00000000      50.00000000      50.00000000      50.00000000      50.00000000      50.00000000      50.00000000      50.00000000      50.00000000      50.00000000      50.00000000      50.00000000      50.00000000      50.00000000      50.00000000      50.00000000
          50.00000000      50.00000000      50.00000000      50.00000000      50.00000000      50.00000000      50.00000000      50.00000000      50.00000000      50.00000000      50.00000000      50.00000000      50.00000000      50.00000000      50.00000000      50.00000000      50.00000000      50.00000000      50.00000000      50.00000000
          50.00000000      50.00000000      50.00000000      50.00000000      50.00000000      50.00000000      50.00000000      50.00000000      50.00000000      50.00000000      50.00000000      50.00000000      50.00000000      50.00000000      50.00000000      50.00000000      50.00000000      50.00000000      50.00000000      50.00000000
          50.00000000      50.00000000      50.00000000      50.00000000      50.00000000      50.00000000      50.00000000      50.00000000      50.00000000      50.00000000      50.00000000      50.00000000      50.00000000      50.00000000      50.00000000      50.00000000      50.00000000      50.00000000      50.00000000      50.00000000
          50.00000000      50.00000000      50.00000000      50.00000000      50.00000000      50.00000000      50.00000000      50.00000000      50.00000000      50.00000000      50.00000000      50.00000000      50.00000000      50.00000000      50.00000000      50.00000000      50.00000000      50.00000000      50.00000000      50.00000000
          50.00000000      50.00000000      50.00000000      50.00000000      50.00000000      50.00000000      50.00000000      50.00000000      50.00000000      50.00000000      50.00000000      50.00000000      50.00000000      50.00000000      50.00000000      50.00000000      50.00000000      50.00000000      50.00000000      50.00000000
          50.00000000      50.00000000      50.00000000      50.00000000      50.00000000      50.00000000      50.00000000      50.00000000      50.00000000      50.00000000      50.00000000      50.00000000      50.00000000      50.00000000      50.00000000      50.00000000      50.00000000      50.00000000      50.00000000      50.00000000
          50.00000000      50.00000000      50.00000000      50.00000000      50.00000000      50.00000000      50.00000000      50.00000000      50.00000000      50.00000000      50.00000000      50.00000000      50.00000000      50.00000000      50.00000000      50.00000000      50.00000000      50.00000000      50.00000000      50.00000000
          50.00000000      50.00000000      50.00000000      50.00000000      50.00000000      50.00000000      50.00000000      50.00000000      50.00000000      50.00000000      50.00000000      50.00000000      50.00000000      50.00000000      50.00000000      50.00000000      50.00000000      50.00000000      50.00000000      50.00000000
          50.00000000      50.00000000      50.00000000      50.00000000      50.00000000      50.00000000      50.00000000      50.00000000      50.00000000      50.00000000      50.00000000      50.00000000      50.00000000      50.00000000      50.00000000      50.00000000      50.00000000      50.00000000      50.00000000      50.00000000
          50.00000000      50.00000000      50.00000000      50.00000000      50.00000000      50.00000000      50.00000000      50.00000000      50.00000000      50.00000000      50.00000000      50.00000000      50.00000000      50.00000000      50.00000000      50.00000000      50.00000000      50.00000000      50.00000000      50.00000000
          50.00000000      50.00000000      50.00000000      50.00000000      50.00000000      50.00000000      50.00000000      50.00000000      50.00000000      50.00000000      50.00000000      50.00000000      50.00000000      50.00000000      50.00000000      50.00000000      50.00000000      50.00000000      50.00000000      50.00000000
          50.00000000      50.00000000      50.00000000      50.00000000      50.00000000      50.00000000      50.00000000      50.00000000      50.00000000      50.00000000      50.00000000      50.00000000      50.00000000      50.00000000      50.00000000      50.00000000      50.00000000      50.00000000      50.00000000      50.00000000
          50.00000000      50.00000000      50.00000000      50.00000000      50.00000000      50.00000000      50.00000000      50.00000000      50.00000000      50.00000000      50.00000000      50.00000000      50.00000000      50.00000000      50.00000000      50.00000000      50.00000000      50.00000000      50.00000000      50.00000000
          50.00000000      50.00000000      50.00000000      50.00000000      50.00000000      50.00000000      50.00000000      50.00000000      50.00000000      50.00000000      50.00000000      50.00000000      50.00000000      50.00000000      50.00000000      50.00000000      50.00000000      50.00000000      50.00000000      50.00000000
          50.00000000      50.00000000      50.00000000      50.00000000      50.00000000      50.00000000      50.00000000      50.00000000      50.00000000      50.00000000      50.00000000      50.00000000      50.00000000      50.00000000      50.00000000      50.00000000      50.00000000      50.00000000      50.00000000      50.00000000
          50.00000000      50.00000000      50.00000000      50.00000000      50.00000000      50.00000000      50.00000000      50.00000000      50.00000000      50.00000000      50.00000000      50.00000000      50.00000000      50.00000000      50.00000000      50.00000000      50.00000000      50.00000000      50.00000000      50.00000000
          50.00000000      50.00000000      50.00000000      50.00000000      50.00000000      50.00000000      50.00000000      50.00000000      50.00000000      50.00000000      50.00000000      50.00000000      50.00000000      50.00000000      50.00000000      50.00000000      50.00000000      50.00000000      50.00000000      50.00000000