# File generated by Flopy version 3.5.0 on 01/17/2024 at 11:16:58.
BEGIN options
END options

BEGIN griddata
  icelltype
    CONSTANT  0
  k  LAYERED
    INTERNAL  FACTOR  1.0
          11.96718233      11.79365813      12.04245862      12.91087545      14.58292323      17.65094694      22.32533097      22.38518008      17.85954683      15.02216187      11.59354727      11.28644817      11.23059771      10.99707726      10.77219840      10.73635032      10.45027707      11.01877834      10.89739625      10.55891033
          10.37860116      10.33280420      10.20713153      10.14131316       9.99623127       9.91990006       9.96509351      10.78369167      12.17325995      14.24926479      17.51095755      22.26592387      22.35883358      17.84740832      15.01649105      10.87274832      10.47758826      10.12337694      10.24019417       9.81708971
          10.61008339       9.73038119       9.94771875       9.87474881       9.79625782       9.76973998       9.68555099       9.75574540       9.56627615       9.62417308       9.48222226       9.38492168       9.21842794       9.36809909       8.92783713       9.16430150       9.03887271       8.55986231       8.35896130       8.61735075
           7.52817651       8.86943627       9.70945061       7.62693059       8.92595246      11.10863060      13.29016711      15.54100879      17.64774692      17.77215184      17.11219274      15.92893501      15.89870304      15.13845797      14.95750648      14.22925775      14.46444182      14.13548715      13.88461664      13.96343137
          13.74933123      10.14928589       8.25527995       8.42939573      10.70249444      12.45444953      13.79195139      15.07141647      15.43075458      14.10714056      14.35880915      15.50173961      15.29367705      14.66774723      14.65626994      14.22139583      14.32824879      14.31795524      14.12898980      14.12285304
          14.59957869      14.50483788      14.29855639      14.27074759      14.10863880      14.08693080      14.23532536      14.19316119      14.05839886      14.02377819      15.25201402      14.99628741      14.78313565      14.59014808      14.73215311      14.47248150      14.38698017      14.18374653      14.38096771      14.36084281
          14.28008703      14.19177872      14.12207800      14.14517436      14.09230522      13.98384762      13.93940796      14.03549031      13.97564035      13.89126154      13.84019383      14.19727008      14.11344112      14.05023996      13.97718584      14.02954008      13.94639125      13.90374960      13.83067102      13.81974816
          13.70061891      14.22650968      14.00013092      14.09628910      13.99585617      13.97729059      13.88769969      13.89930809      13.80704095      13.80126738      13.71838551      13.79648210      13.69399614      13.60624257      13.62514142      13.54477337      13.71933154      13.63635275      13.63934020      13.56432424
          13.55818860      13.48484848      13.49344937      13.42675827      13.86470171      13.78506368      13.75859279      13.68806110      13.62773295      13.58217045      13.46823480      13.49342535      13.37185921      13.36151210      13.26369589      10.51086099       9.81176533      10.01527659      11.02027291      11.98469215
          12.75499891      13.12153338      12.37451028      12.69432107      12.83151701      12.48623726      12.61119658      13.41263800      13.73252456      13.80639923      13.42027201      13.54978821      13.57913514      13.40489090      13.43458583      12.95484069      13.06240609      12.75347543      12.80869033      12.64435235
          12.69856252      12.86056396      12.90886643      12.74986820      12.79802478      13.19495691      13.23546589      13.07038793      13.11071536      13.27090698      13.30119531      13.14649306      13.17763010      12.95338879      12.99395130      12.84280920      12.88402782      12.99210011      13.92878795      13.94188395
          13.75827074      13.77307231      13.94708442      13.94469269      13.78085691      13.78187908      13.60202431      13.61851417      13.45850912      13.47670385      13.56105500      13.93511158      13.91883190      13.77647711      13.76506405      13.80882424      13.56153313      13.54214643      13.27505724      13.30713224
          13.04977376      13.09114174      13.21863890      13.74998138      13.67637002      13.50615838      13.45724523      13.45493456      13.20099010      13.14427588      13.30094688      13.15495110      13.06783794      12.98736303      10.59517428      10.36635128      10.23766099      10.08132176      10.28318768      10.33904994
          10.16692808      10.38620886      10.50822607      10.75315973      10.63607270      10.86268874      11.02750242      11.29385264      11.04318695      11.17778047      11.25262174      11.10857866      11.14823626      11.53911587      11.77181904      11.32311912      11.39346842      11.18330091      11.22059636      11.46819444
          11.55122573      11.26730162      11.36982938      11.40767576      11.25248641      11.28633085      12.03780757      12.16205357      11.85121827      11.96367257      12.28392434      12.42437405      12.48233629      12.32133233      12.37866309      12.10178101      12.16011118      11.99761082      12.05560015      12.21813923
          12.27550886      12.11386156      12.17196949      11.64499182      11.77777759      11.83303943      11.66600074      11.72080973      11.44992972      11.49664634      11.32585487      11.37112205      11.54768125      11.60270345      11.42194388      11.47789810      11.89004872      11.94840132      11.77819715      11.83766389
          11.98378891      11.63154655      11.76172378      12.53837014      12.59218802      12.43451643      12.48856492      12.64350632      12.69205578      12.54048748      12.58998041      12.30865738      12.41652747      12.70859159      12.78804188      12.51574159      12.60394932      12.06490014      12.30054245      12.79427068
          12.88058056      12.49082105      12.62623368      12.82226019      12.81997305       9.91611335       9.74728638       9.61116939       9.40331702       9.54327310       9.47386444       9.31182325       9.35754112       9.17360893       9.18319860       9.10168116       9.02396881       8.92884789       9.27343071       9.06834475
           9.23536495       9.01644388       8.89462919       8.78001433       8.82314061       8.68397128       9.00159695       9.17799031       8.75748902       8.82702507       8.66234869       8.75822335       8.95557474       9.11534147       8.90808120       9.08329768       9.85562445      10.21956251      10.40034828      10.13236742
          10.35173247       9.46419560       9.77371236       9.28933180       9.46708002       9.26871011       9.45507869       9.64191477       9.80950739       9.63647757       9.80904382      10.01048055      10.14229880       9.98142223      10.12144100      10.26454246      10.37619765      10.25001818      10.36635266       9.96704968
          10.11275182       9.97027084      10.11856946      10.24551736      10.36472409      10.25297872      10.37296783      10.56346121      10.70287268      10.53853711      10.68834620      10.81593886      10.90205561      10.80007466      10.86601335      10.89630827      10.85228688      10.87824122      10.47666467      10.56563298
          10.47001324      10.56082100      10.64299220      10.70876992      10.63876683      10.70395461      10.52047970      10.67432209      10.76309002      10.80614696      10.75656365      10.79682643      10.83819306      10.85953651      10.82501847      10.84145889      10.77205459      10.81555243      10.96207247      10.99824217
          10.91847907      10.93290952      10.89495578      10.90285946      10.94008475      10.94060966      10.90248341      10.89448469      11.01448901      11.04988965      11.05385177      10.98288856      10.97672891      10.93522959      10.92485112      10.87967364      10.85904292      10.91056016      10.89363367      10.83379526
          10.80536575      10.87054866      10.87167951      10.84652017      10.84064659      10.83426463      10.80714304      10.74998293      10.77511997      10.68976029      10.64905333      10.51283998      11.05699004      11.06047002      10.96961969      10.96295543      11.06552430      11.07340539      10.95822662      10.95696475
          10.87554051      10.85792602      10.77543308      10.74591236      10.77273922      11.08532634      11.10239262      10.96066894      10.97071826      11.12553168      11.15542828      10.98827779      11.01421025      10.75308434      10.77030058      10.59138053      10.49863708      10.35571787      10.20061959      10.23772587
          11.19247469      11.23674324      11.04900668      11.09274813      11.24628474      10.83391705      10.94468290      11.31711704      10.34552960      10.74157426      11.64267812      12.23782166      12.42820661      12.02846473      12.27566654      12.54660830      12.65985329       9.17525856       8.81607354       9.43355255
           9.17176010       8.77509471       9.05170281       9.13325562       9.31719732       9.90073873       9.82956039       9.41239612       9.76897762       9.60765597       9.91697621      10.08624733      10.34950967      10.20104334      10.43921515      10.16381430      10.56784660      10.65818966      10.80618264      10.83770724
          10.90041384      10.71382792      10.39098029      10.72634730      10.29722414       9.89096369       9.43513464       9.62293548       8.85326853       9.51759758      10.87206325      11.45198012      10.69565675      11.34419079      11.87654104      12.13079981      12.24683690      12.08730545      12.21012276      11.71499148
          11.90383931      11.70110693      11.89067976      12.05906687      12.16157248      12.21829001      12.15224572      12.20947232      12.01205190      12.08255759      12.00985180      12.08002237      12.13210855      12.16232024      12.12990952      12.16010917      12.20358080      12.14339977      12.20055788      12.36551290
          12.49144564      12.28848275      12.37129316      12.27713375      12.36056430      12.46004057      12.58422090      10.95475612      11.10443128      11.25908368      10.85764769       9.91818812      10.02260977      11.21746508      11.82188084      12.04928616      12.17382915      12.06598862      12.18476530      11.91359022
          12.16766066      12.32015230      12.45138852      12.34327337      12.46116530      12.56490511      11.86888488      11.84820376      11.81015251      11.57404709      11.25145100      11.31254281      11.77801078      12.20678870      12.45786647      12.57986598
    INTERNAL  FACTOR  1.0
           1.10539613       1.10500708       1.10744494       1.11502080       1.13142362       1.16346478       1.22021916       1.30160296       1.37290986       1.37328189       1.10129888       1.09971917       1.09663761       1.09606947       1.09493660       1.09269588       1.09115452       1.09865412       1.09853877       1.09398981
           1.09330874       1.09122482       1.09067900       1.08898078       1.08832938       1.08880076       1.09065659       1.09769413       1.10986928       1.13661745       1.19075850       1.29806703       1.48378209       1.68935881       1.69016638       1.09012598       1.08866804       1.08659700       1.08390781       1.08115506
           1.08145114       1.07317347       1.08651155       1.08658697       1.08623867       1.08524392       1.08486391       1.08380019       1.08288721       1.08506119       1.08449603       1.08207810       1.08139182       1.07864737       1.07656195       1.08230521       1.08197023       1.07508575       1.07439754       1.06544436
           1.06035868       1.07924063       1.08380718       1.06009537       1.06583095       1.09234864       1.13194454       1.20683582       1.36342726       1.68433602       1.96376794       2.13863574       2.13562512       2.43505649       2.13936140       1.96595168       2.43614003       2.18092229       2.03322188       2.24326782
           2.07667148       1.05677573       1.02316207       1.01655579       1.05406588       1.11013085       1.19281006       1.31112342       1.42888650       1.28715819       1.39293067       1.59812551       1.83264741       1.51527642       1.60499305       1.48037515       1.55054947       1.59448766       1.52750857       1.56843540
           1.70784516       1.82264094       1.64105398       1.69002772       1.61157183       1.65665766       1.74104581       1.79356340       1.70329804       1.75093233       2.07080985       2.23874270       2.02469205       2.17381878       2.40552964       2.53613212       2.31209124       2.40479939       1.94544209       2.06496006
           2.12720271       2.00957919       2.06433496       1.84680859       1.89973438       1.79880152       1.84591859       1.95097565       1.99882680       1.89104974       1.93272000       2.18417859       2.23243917       2.11359300       2.15455261       2.26805527       2.28730824       2.18427526       2.20019618       2.02221358
           2.06773414       2.53686837       2.40773529       2.45521984       2.42648796       2.37387273       2.35118456       2.37545154       2.31025326       2.30919620       2.25340928       2.24240908       2.12171601       2.04011984       2.10862976       2.02917692       2.23724672       2.16081288       2.18897355       2.11994253
           2.08387871       2.00837764       2.04926990       1.97902613       2.28783810       2.26964387       2.20078483       2.18603996       2.17611526       2.06911347       2.02633835       2.07307508       1.95314116       1.95078373       1.85759747       1.02838154       0.94987715       0.91870378       1.00076820       1.07275972
           1.13769067       1.18490681       1.11052811       1.14771324       1.17095889       1.12957095       1.15006590       1.24832646       1.32504770       1.37817448       1.29541230       1.33854306       1.36425811       1.32068620       1.34454974       1.19763607       1.22834609       1.17325838       1.18617219       1.16117447
           1.17317826       1.19998367       1.21473939       1.18599426       1.19966167       1.26209262       1.28159918       1.24645298       1.26454589       1.30238619       1.32445205       1.28377018       1.30411328       1.23047386       1.24720659       1.21420754       1.22964416       1.26432083       1.43336743       1.46712084
           1.41288103       1.44423683       1.50298366       1.54085308       1.47740010       1.51224368       1.39162874       1.42061728       1.36985444       1.39654649       1.45296003       1.58054526       1.62177563       1.54856426       1.58606644       1.66461296       1.51596351       1.58117447       1.34825196       1.39707043
           1.30190276       1.34240990       1.43987241       1.74520472       1.81911256       1.64480951       1.70161527       1.82689717       1.52822358       1.58646168       1.83069002       1.73924364       1.59228496       1.54537029       1.03798229       1.00374473       1.04247656       1.01252566       0.95812982       0.90544075
           0.97532662       0.93796134       0.87551703       0.90858728       0.91907549       0.93107579       0.95518230       0.99471442       0.95787007       0.97949623       0.99294696       0.97598539       0.98590669       1.02597175       1.05224663       1.00488482       1.01557206       0.99471862       1.00256937       1.02538665
           1.03476131       1.00973907       1.01947069       1.02319459       1.01013307       1.01320165       1.07947097       1.09397165       1.06268748       1.07494902       1.10980537       1.12849103       1.13826808       1.11715463       1.12618083       1.09021932       1.09757689       1.07931686       1.08601186       1.10537034
           1.11365422       1.09310917       1.10066065       1.04414996       1.05675303       1.06219306       1.04605754       1.05086537       1.02695159       1.03079282       1.01630934       1.01950311       1.03476961       1.03893333       1.02283052       1.02633966       1.06790011       1.07392939       1.05592339       1.06128444
           1.07692140       1.03893320       1.04832099       1.14868783       1.15980147       1.13579423       1.14604160       1.17165224       1.18427355       1.15696178       1.16858392       1.12008045       1.13927667       1.19605570       1.22479957       1.16098413       1.18520551       1.08230109       1.11554694       1.24904942
           1.31199036       1.15725016       1.20361463       1.32399585       1.34582052       1.05377957       1.04256328       1.05762091       1.04755171       1.02659218       1.06266996       1.05831074       1.06445495       1.06031510       1.05367121       1.04875779       1.05591577       1.05126340       1.06618559       1.06224749
           1.06784447       1.06408908       1.05806679       1.05364928       1.06010418       1.05589441       1.04239083       1.03147200       1.04900558       1.04415182       1.05146847       1.04683958       1.03911019       1.03390933       1.04202589       1.03705067       0.99879548       0.97106979       0.95905039       0.98536037
           0.97465312       1.01998260       1.00836271       1.02858451       1.02317732       1.03194230       1.02673389       1.01773497       1.01230897       1.02146260       1.01616846       0.99723793       0.99177358       1.00240500       0.99709327       0.98665236       0.98195028       0.99203789       0.98729715       1.00695318
           1.00172127       1.01089276       1.00567605       0.99666369       0.99182439       1.00055585       0.99556427       0.95080648       0.94717588       0.96649475       0.96136404       0.94797438       0.95212327       0.95916436       0.95731687       0.95833299       0.96063771       0.96062075       0.97772857       0.97402817
           0.98291738       0.97892912       0.97086601       0.96823363       0.97534463       0.97215709       0.98681162       0.97829020       0.96609854       0.96440808       0.96934165       0.96685827       0.96309503       0.96208414       0.96465587       0.96267715       0.97061282       0.96357370       0.95820835       0.96498859
           0.95968245       0.96124859       0.96088568       0.96133918       0.96292978       0.96464256       0.96189883       0.96249617       0.97161931       0.97820135       0.98151237       0.97409713       0.97645338       0.96632263       0.96792433       0.96307816       0.96360723       0.96941905       0.97079311       0.96406036
           0.96442751       0.96129848       0.96066503       0.96086349       0.95915932       0.95838957       0.95688808       0.95029398       0.95623516       0.95394135       0.94363405       0.93689495       0.98461774       0.98752999       0.97864756       0.98068952       0.99027076       0.99286856       0.98259782       0.98439744
           0.97204539       0.97318493       0.96470974       0.96491709       0.97003095       0.99535679       0.99777229       0.98611808       0.98779263       1.00015425       1.00254342       0.98945611       0.99114499       0.97107236       0.97217341       0.95149385       0.94900707       0.93020128       0.92377339       0.93100184
           1.00498165       1.00751174       0.99289678       0.99474993       1.00479296       0.97357752       0.97553945       0.99723911       0.92528548       0.92315042       0.97858675       1.06751614       1.10856278       0.97352787       1.01993088       1.12669404       1.17422089       1.06843788       1.06096898       1.07131595
           1.06435575       1.05265504       1.04356376       1.05655024       1.04791159       1.07165613       1.05681425       1.03381660       1.02358321       1.03847918       1.02831285       1.01306093       1.00243885       1.01747814       1.00602502       1.03786942       1.01414558       0.98750083       0.96362634       0.98464974
           0.94807777       0.93777844       0.91003342       0.90364374       0.85299507       0.88262199       0.85938019       0.80222822       0.76117945       0.78684272       0.82748040       0.83414473       0.72277092       0.72138025       0.87130939       0.94034244       0.97162729       0.89707360       0.93438412       0.77598672
           0.81383105       0.72753029       0.77549489       0.85799243       0.89906898       0.91964520       0.88377329       0.90571447       0.82146974       0.84642044       0.80849997       0.83467867       0.86779538       0.87949012       0.86165819       0.87363279       0.89370630       0.85988344       0.88385344       1.00095104
           1.05361922       0.94248049       0.97835143       0.92134308       0.96008987       1.01459719       1.08786864       1.06937003       1.02656363       0.94178333       0.78553262       0.58264687       0.53123446       0.62602808       0.72536014       0.80956953       0.86125775       0.80457850       0.85518581       0.74031306
           0.83667138       0.92425465       0.99288666       0.92175290       0.98686801       1.05301188       1.07272081       1.02497172       0.91723238       0.68637253       0.28019262       0.24915019       0.60365661       0.82915192       0.97201917       1.05097165
END griddata

