# File generated by Flopy version 3.5.0 on 01/17/2024 at 11:16:58.
BEGIN options
  SAVE_FLOWS
END options

BEGIN packages
  DISV6  dummy.disv  disv
  NPF6  dummy.npf  npf
  IC6  dummy.ic  ic
  GHB6  dummy.ghb  ghb_0
  RCH6  dummy.rch  rch_0
  WEL6  dummy.wel  wel_0
  RIV6  dummy.riv  riv_0
  OC6  dummy.oc  oc
END packages

