# File generated by Flopy version 3.5.0 on 01/17/2024 at 11:16:58.
BEGIN options
END options

BEGIN dimensions
  MAXBOUND  2
END dimensions

BEGIN period  1
  2 47 -123
  1 575 -300
END period  1

