# File generated by Flopy version 3.5.0 on 01/17/2024 at 11:16:58.
BEGIN options
END options

BEGIN timing
  TDIS6  ModelFiles.tdis
END timing

BEGIN models
  gwf6  dummy.nam  dummy
END models

BEGIN exchanges
END exchanges

BEGIN solutiongroup  1
  ims6  ModelFiles.ims  dummy
END solutiongroup  1

