# File generated by Flopy version 3.5.0 on 03/06/2024 at 10:48:00.
BEGIN griddata
  strt
    INTERNAL  FACTOR  1.0
        15.00000000      15.00000000      15.00000000      15.00000000      15.00000000      15.00000000      15.00000000      15.00000000      15.00000000      15.00000000      15.00000000      15.00000000      15.00000000      15.00000000      15.00000000      15.00000000      15.00000000      15.00000000      15.00000000      15.00000000
        15.00000000      15.00000000      15.00000000      15.00000000      15.00000000      15.00000000      15.00000000      15.00000000      15.00000000      15.00000000      15.00000000      15.00000000      15.00000000      15.00000000      15.00000000      15.00000000      15.00000000      15.00000000      15.00000000      15.00000000
        15.00000000      15.00000000      15.00000000      15.00000000      15.00000000      15.00000000      15.00000000      15.00000000      15.00000000      15.00000000      15.00000000      15.00000000      15.00000000      15.00000000      15.00000000      15.00000000      15.00000000      15.00000000      15.00000000      15.00000000
        15.00000000      15.00000000      15.00000000      15.00000000      15.00000000      15.00000000      15.00000000      15.00000000      15.00000000      15.00000000      15.00000000      15.00000000      15.00000000      15.00000000      15.00000000      15.00000000      15.00000000      15.00000000      15.00000000      15.00000000
        15.00000000      15.00000000      15.00000000      15.00000000      15.00000000      15.00000000      15.00000000      15.00000000      15.00000000      15.00000000      15.00000000      15.00000000      15.00000000      15.00000000      15.00000000      15.00000000      15.00000000      15.00000000      15.00000000      15.00000000
        15.20259508      15.21854867      15.22411595      15.22111647      15.21459016      15.20770751      15.19741491      15.18698161      15.17801516      15.16563517      15.15374235      15.15084886      15.15330917      15.15328092      15.15105447      15.14944962      15.14627212      15.14236170      15.14164336      15.13980140
        15.13299375      15.12777645      15.12737459      15.12592493      15.12200931      15.11717251      15.10889162      15.09797271      15.09037998      15.08583249      15.08037893      15.07464885      15.07077371      15.06751490      15.06377536      15.06053078      15.05772115      15.05561744      15.05474726      15.05440953
        15.05354321      15.05156656      15.04975118      15.04911066      15.04894511      15.04935497      15.04954530      15.04904020      15.04840338      15.04842179      15.04919211      15.05011748      15.05034624      15.04960173      15.04895353      15.04872779      15.04787387      15.04640642      15.04468035      15.04308576
        15.04237318      15.04270094      15.04321217      15.04323154      15.04352186      15.04413032      15.04412491      15.04352052      15.04276426      15.04163589      15.04037269      15.04025553      15.04134389      15.04179903      15.04117483      15.04056838      15.04039041      15.04057267      15.04182091      15.04370265
        15.04512432      15.04710649      15.05017345      15.05263404      15.05387560      15.05486948      15.05551464      15.05493386      15.05400033      15.05370412      15.05252703      15.05104371      15.05057773      15.05078319      15.05033197      15.05005196      15.05063477      15.05061978      15.05027633      15.05066599
        15.45098309      15.45653745      15.45952738      15.45280064      15.43956818      15.42508777      15.40462577      15.38271873      15.36518946      15.34370213      15.31931666      15.30657927      15.30505483      15.30345019      15.29924668      15.29521040      15.28911363      15.28129430      15.27754097      15.27396507
        15.26360019      15.25319194      15.24922843      15.24533493      15.23789867      15.22863407      15.21486894      15.19605532      15.18018413      15.16933343      15.15859999      15.14779500      15.13951344      15.13255497      15.12539858      15.11928117      15.11391282      15.10941794      15.10691272      15.10590349
        15.10501032      15.10272995      15.09954833      15.09738603      15.09634119      15.09631336      15.09625716      15.09559960      15.09463223      15.09433147      15.09486077      15.09575822      15.09609330      15.09486327      15.09308506      15.09153541      15.08950124      15.08683593      15.08391334      15.08109134
        15.07937415      15.07941760      15.08021485      15.08027264      15.08042852      15.08122157      15.08153357      15.08096228      15.07998541      15.07848529      15.07668989      15.07606703      15.07709919      15.07781943      15.07728779      15.07630703      15.07551165      15.07510070      15.07632730      15.07911035
        15.08164694      15.08443024      15.08844585      15.09256066      15.09540191      15.09731086      15.09863029      15.09886348      15.09853307      15.09842714      15.09707711      15.09508324      15.09436751      15.09481419      15.09433705      15.09379004      15.09455457      15.09518023      15.09509935      15.09524468
        15.71169964      15.71105337      15.71110520      15.70055842      15.67962912      15.65685941      15.62702991      15.59278155      15.56526263      15.53606384      15.50019486      15.47408338      15.46375888      15.45728348      15.44948857      15.44255814      15.43388417      15.42195638      15.41372095      15.40806592
        15.39605057      15.38147072      15.37276548      15.36561474      15.35505115      15.34215876      15.32409711      15.29850392      15.27421801      15.25653314      15.24036504      15.22388033      15.21039442      15.19970742      15.18963612      15.18078369      15.17260385      15.16536185      15.16074447      15.15837312
        15.15666355      15.15412032      15.15052635      15.14730790      15.14505220      15.14394248      15.14339015      15.14283346      15.14163953      15.14074124      15.14054623      15.14102541      15.14143881      15.13979683      15.13683349      15.13386153      15.13076527      15.12714304      15.12303983      15.11903502
        15.11618922      15.11544421      15.11603339      15.11590991      15.11585602      15.11681185      15.11756512      15.11738038      15.11677641      15.11557979      15.11346612      15.11182160      15.11198797      15.11255766      15.11222729      15.11108924      15.10977861      15.10875082      15.10943782      15.11223493
        15.11512851      15.11820980      15.12249637      15.12734474      15.13117656      15.13404733      15.13654489      15.13815602      15.13884676      15.13938535      15.13879775      15.13703853      15.13593703      15.13632985      15.13617149      15.13562779      15.13597745      15.13640688      15.13642353      15.13654695
        15.98217619      15.97400287      15.96967573      15.95667249      15.92966621      15.89867452      15.86013275      15.81368172      15.77497890      15.73839873      15.69231693      15.65119297      15.62833922      15.61395394      15.60027368      15.58905065      15.57763524      15.56220384      15.54925578      15.54075500
        15.52755042      15.50995928      15.49678641      15.48633571      15.47293974      15.45692661      15.43589090      15.40569651      15.37379372      15.34859770      15.32681125      15.30498382      15.28605294      15.27069075      15.25687200      15.24517463      15.23463268      15.22468176      15.21711269      15.21245833
        15.20946675      15.20659637      15.20268898      15.19832372      15.19499229      15.19313354      15.19196851      15.19095260      15.18937807      15.18814015      15.18748756      15.18742883      15.18767174      15.18595279      15.18247627      15.17819886      15.17337958      15.16819227      15.16294213      15.15800514
        15.15387176      15.15193336      15.15239897      15.15268878      15.15261233      15.15333927      15.15428333      15.15462702      15.15462427      15.15379463      15.15135810      15.14880410      15.14793354      15.14783313      15.14713223      15.14586658      15.14447732      15.14295164      15.14245701      15.14431698
        15.14706874      15.15031584      15.15459682      15.15970470      15.16446550      15.16867516      15.17252397      15.17530214      15.17692323      15.17828977      15.17870410      15.17725885      15.17570832      15.17606980      15.17660821      15.17650770      15.17645137      15.17630304      15.17606489      15.17579081
        16.25661053      16.23885929      16.22534451      16.20779566      16.17650949      16.13979646      16.09454795      16.03581527      15.98386813      15.93984938      15.88617893      15.83043607      15.79227798      15.76756723      15.74613221      15.72871815      15.71343957      15.69467485      15.67725438      15.66537248
        15.65110822      15.63173634      15.61513487      15.60202995      15.58683669      15.56884015      15.54614659      15.51355447      15.47559169      15.44278279      15.41519947      15.38856711      15.36443000      15.34405777      15.32605887      15.31118655      15.29829425      15.28586873      15.27533425      15.26803614
        15.26302072      15.25899763      15.25458948      15.24946116      15.24527005      15.24264901      15.24088713      15.23947972      15.23771233      15.23599537      15.23448605      15.23381334      15.23405317      15.23254978      15.22877870      15.22359716      15.21748250      15.21072885      15.20389561      15.19762592
        15.19228683      15.18936521      15.18961685      15.19029076      15.19034193      15.19102726      15.19216438      15.19260519      15.19274408      15.19243295      15.19034730      15.18732367      15.18504915      15.18371158      15.18232188      15.18079269      15.17902814      15.17674994      15.17531532      15.17642575
        15.17881158      15.18169872      15.18576821      15.19121972      15.19673929      15.20148400      15.20576515      15.20952865      15.21259525      15.21509731      15.21657920      15.21605331      15.21480215      15.21501182      15.21555386      15.21554969      15.21542001      15.21498384      15.21425467      15.21324524
        16.52829641      16.50018446      16.47452365      16.44933470      16.41131805      16.36820917      16.31919833      16.25259000      16.18637833      16.13198438      16.07169099      16.00451112      15.95073902      15.91344689      15.88219874      15.85690939      15.83673887      15.81436487      15.79219480      15.77644021
        15.76149188      15.74182372      15.72275123      15.70717331      15.69097928      15.67252244      15.64959090      15.61639208      15.57450477      15.53520396      15.50219113      15.47137126      15.44265912      15.41760232      15.39531292      15.37647182      15.36041462      15.34553761      15.33267762      15.32307248
        15.31593024      15.31055042      15.30574380      15.30006456      15.29466058      15.29073860      15.28818244      15.28636919      15.28461053      15.28277364      15.28064550      15.27936308      15.27941070      15.27805904      15.27414230      15.26826517      15.26104604      15.25277025      15.24433044      15.23686118
        15.23061588      15.22680429      15.22656942      15.22773648      15.22833167      15.22901155      15.23001431      15.23030975      15.23042897      15.23046916      15.22865250      15.22539120      15.22216801      15.21967490      15.21713162      15.21473115      15.21252692      15.21000133      15.20803473      15.20818757
        15.20988294      15.21237632      15.21610887      15.22124777      15.22675280      15.23191459      15.23689375      15.24147802      15.24539093      15.24876894      15.25162908      15.25243495      15.25125767      15.25054903      15.25082707      15.25136920      15.25171915      15.25148389      15.25087233      15.24984840
        16.80131693      16.76274682      16.72128878      16.68512695      16.63824546      16.58631457      16.53212487      16.46029783      16.38202671      16.31629610      16.24893222      16.17128242      16.10227687      16.05168550      16.00987052      15.97504938      15.94826469      15.92168617      15.89485562      15.87479477
        15.85864476      15.83927703      15.81909933      15.80168627      15.78447851      15.76572400      15.74356788      15.71222842      15.66934917      15.62425885      15.58503788      15.55028728      15.51824641      15.48903454      15.46220932      15.43935783      15.42049538      15.40351302      15.38844118      15.37654571
        15.36752829      15.36079695      15.35502300      15.34821693      15.34146942      15.33654382      15.33334431      15.33085861      15.32901561      15.32764984      15.32550496      15.32333853      15.32243387      15.32090008      15.31706850      15.31082639      15.30265711      15.29312687      15.28358934      15.27535644
        15.26834970      15.26345123      15.26226854      15.26357573      15.26462063      15.26532807      15.26633036      15.26684881      15.26702730      15.26713543      15.26551544      15.26223707      15.25847655      15.25491456      15.25105770      15.24755691      15.24477767      15.24186708      15.23931215      15.23863638
        15.23978388      15.24185352      15.24490692      15.24934478      15.25466100      15.26004860      15.26516389      15.26983156      15.27415408      15.27821298      15.28204806      15.28414518      15.28394857      15.28315762      15.28299787      15.28339915      15.28387491      15.28408422      15.28395229      15.28313211
        17.08044636      17.03426347      16.97587279      16.92497102      16.86611111      16.80283016      16.74148262      16.66529230      16.57651910      16.49872039      16.42430037      16.33747921      16.25286428      16.18720278      16.13386187      16.08870708      16.05397611      16.02219898      15.98994694      15.96475623
        15.94701849      15.92845878      15.90809160      15.88910071      15.87068335      15.85155988      15.83014537      15.80115783      15.75975994      15.71138692      15.66613140      15.62656617      15.59113860      15.55873830      15.52840023      15.50170048      15.47932412      15.45960136      15.44246038      15.42854970
        15.41747242      15.40902400      15.40247217      15.39537045      15.38772292      15.38141655      15.37719889      15.37391951      15.37161582      15.37022762      15.36801421      15.36525584      15.36370640      15.36213466      15.35827463      15.35170261      15.34292387      15.33217410      15.32097521      15.31144495
        15.30424080      15.29907196      15.29696308      15.29783173      15.29915524      15.30037506      15.30185959      15.30269665      15.30273698      15.30269194      15.30123488      15.29767194      15.29304780      15.28849392      15.28385656      15.27959255      15.27616219      15.27269791      15.26965064      15.26832432
        15.26866653      15.26970936      15.27169591      15.27528128      15.28005892      15.28512815      15.29015171      15.29509196      15.29987933      15.30411494      15.30814652      15.31117858      15.31231332      15.31191534      15.31117424      15.31099512      15.31137546      15.31192357      15.31220508      15.31182237
        17.36859700      17.31674684      17.24419548      17.17891829      17.10657696      17.02821209      16.95632399      16.87554676      16.77802355      16.68671494      16.60327367      16.50865396      16.40997141      16.32772361      16.26093400      16.20443988      16.16066502      16.12266192      16.08363855      16.05160212
        16.03176737      16.01422191      15.99436475      15.97410869      15.95417542      15.93427551      15.91323012      15.88646231      15.84802083      15.79910432      15.74894168      15.70384644      15.66428870      15.62856298      15.59507815      15.56499545      15.53922125      15.51643892      15.49697993      15.48102863
        15.46776144      15.45743605      15.44993712      15.44248276      15.43400052      15.42637330      15.42116317      15.41700707      15.41378364      15.41200021      15.40993298      15.40707322      15.40486633      15.40318606      15.39952770      15.39278026      15.38299149      15.37006856      15.35615907      15.34477885
        15.33874589      15.33465745      15.33221795      15.33271653      15.33424753      15.33558872      15.33705146      15.33810439      15.33835082      15.33822499      15.33672783      15.33293650      15.32784286      15.32271520      15.31720040      15.31164576      15.30724182      15.30314817      15.29916088      15.29646934
        15.29569469      15.29607460      15.29743353      15.30005101      15.30392808      15.30866017      15.31374592      15.31861492      15.32298952      15.32679606      15.33076868      15.33431607      15.33624878      15.33641900      15.33583970      15.33551222      15.33552174      15.33574390      15.33602497      15.33609634
        17.66744838      17.61165040      17.52517777      17.44450055      17.36023400      17.26710448      17.18099886      17.09224609      16.98639389      16.88300604      16.79030810      16.68842012      16.57686407      16.47781232      16.39635227      16.32692274      16.27202422      16.22614857      16.17913213      16.13816462
        16.11633291      16.09967740      16.08087439      16.06022625      16.03875206      16.01714553      15.99541861      15.97019878      15.93542460      15.88828303      15.83489368      15.78452575      15.74090615      15.70173489      15.66456723      15.63093738      15.60215700      15.57621913      15.55366268      15.53521401
        15.51969185      15.50740058      15.49867809      15.49082062      15.48192248      15.47344717      15.46733312      15.46226140      15.45787000      15.45531967      15.45301528      15.44982375      15.44676932      15.44485010      15.44154194      15.43494554      15.42461327      15.40949381      15.39142610      15.37575474
        15.37311069      15.37196109      15.37023206      15.37021810      15.37140693      15.37251246      15.37385234      15.37501215      15.37537503      15.37521404      15.37391578      15.37022253      15.36446043      15.35816756      15.35145654      15.34449951      15.33875730      15.33360273      15.32851502      15.32470753
        15.32305927      15.32264858      15.32305447      15.32454999      15.32739391      15.33129279      15.33561712      15.33991425      15.34406765      15.34778458      15.35140612      15.35480719      15.35732519      15.35842720      15.35819358      15.35746354      15.35693838      15.35690983      15.35710598      15.35723950
        17.96528868      17.90775919      17.81013684      17.71294444      17.61620340      17.50962942      17.40936851      17.31192598      17.19791194      17.08210712      16.97938110      16.87247378      16.75158414      16.63558328      16.53732606      16.45402184      16.38763910      16.33360592      16.27896510      16.22796214
        16.20413355      16.18677610      16.16760149      16.14593462      16.12279659      16.09947310      16.07649587      16.05139607      16.01951086      15.97650140      15.92371981      15.86937546      15.82106660      15.77833924      15.73774757      15.70031888      15.66783138      15.63821033      15.61249674      15.59192626
        15.57417322      15.55935503      15.54914078      15.54129542      15.53239209      15.52279326      15.51531372      15.50955700      15.50437173      15.50087344      15.49798438      15.49431166      15.49051625      15.48813921      15.48484924      15.47851353      15.46868189      15.45300484      15.43058372      15.40632130
        15.41085927      15.41342736      15.41262331      15.41184213      15.41225992      15.41294845      15.41393051      15.41467729      15.41461734      15.41425228      15.41326698      15.40986705      15.40353645      15.39590047      15.38775280      15.37909316      15.37141976      15.36481054      15.35855927      15.35357440
        15.35080110      15.34935333      15.34886627      15.34938597      15.35089164      15.35337944      15.35666399      15.36047645      15.36436798      15.36772407      15.37079380      15.37389215      15.37656447      15.37794855      15.37786512      15.37721349      15.37672984      15.37664477      15.37669530      15.37689210
        18.24837986      18.19035889      18.08506762      17.97303982      17.86369658      17.74427405      17.62969797      17.52318130      17.40303474      17.27619436      17.16157591      17.04909675      16.92332588      16.79460177      16.67930066      16.58053265      16.50249274      16.44226083      16.38673121      16.33461697
        16.30015923      16.27480990      16.25150109      16.22758770      16.20255750      16.17742668      16.15306213      16.12761200      16.09766669      16.05886513      16.00904761      15.95350004      15.90174519      15.85586569      15.81168669      15.77030623      15.73449676      15.70171708      15.67252046      15.64942771
        15.62978375      15.61271718      15.60059058      15.59208021      15.58308549      15.57302994      15.56457652      15.55795492      15.55185284      15.54748709      15.54438521      15.54026745      15.53522540      15.53169712      15.52827027      15.52279842      15.51470436      15.50206073      15.48443344      15.46731885
        15.46394851      15.46232899      15.45944167      15.45709449      15.45635416      15.45616799      15.45636282      15.45661083      15.45620553      15.45534010      15.45406580      15.45067728      15.44424583      15.43565762      15.42575506      15.41494641      15.40521509      15.39728937      15.38979906      15.38309507
        15.37875020      15.37614723      15.37460755      15.37379367      15.37367677      15.37476775      15.37704594      15.38002908      15.38318708      15.38621561      15.38913796      15.39191613      15.39425820      15.39570399      15.39609874      15.39585905      15.39542436      15.39517935      15.39511606      15.39539069
        18.50791688      18.45226040      18.34264103      18.21656580      18.09440944      17.96388101      17.83614940      17.71921595      17.59329497      17.45794736      17.33184896      17.21220480      17.08230805      16.94517523      16.81612639      16.70218974      16.61117718      16.54368642      16.48731985      16.43502191
        16.39194465      16.35743517      16.32818866      16.30108095      16.27391271      16.24696979      16.22132989      16.19548326      16.16678151      16.13162872      16.08586721      16.03127585      15.97774558      15.93007671      15.88349661      15.83850459      15.79943761      15.76390846      15.73126628      15.70535898
        15.68401119      15.66482374      15.65043922      15.64104165      15.63230978      15.62231080      15.61300475      15.60534823      15.59835391      15.59294367      15.58946928      15.58523840      15.57960531      15.57516926      15.57139716      15.56654503      15.56031000      15.55153645      15.53921275      15.52659202
        15.51939059      15.51406598      15.50859766      15.50414498      15.50167058      15.50049311      15.50010793      15.49969919      15.49828810      15.49625815      15.49436598      15.49101580      15.48466104      15.47543222      15.46432626      15.45203487      15.44016584      15.43010074      15.42078787      15.41223475
        15.40600246      15.40159512      15.39846394      15.39658681      15.39562353      15.39563149      15.39658997      15.39846509      15.40095794      15.40361322      15.40595206      15.40805461      15.41018171      15.41196174      15.41274835      15.41260687      15.41224394      15.41216932      15.41213680      15.41229018
        18.74324845      18.69009642      18.58181950      18.44681529      18.31206893      18.16952937      18.02883172      17.90160274      17.77023754      17.62677497      17.48847483      17.36044636      17.22757759      17.08540669      16.94527505      16.81734470      16.71280302      16.63581519      16.57560730      16.52173842
        16.47342635      16.43168158      16.39639626      16.36546617      16.33588106      16.30736446      16.28076764      16.25436520      16.22593254      16.19341416      16.15227545      16.10038413      16.04599950      15.99732007      15.95041165      15.90346933      15.86137997      15.82309633      15.78724504      15.75858052
        15.73560806      15.71426420      15.69725253      15.68662443      15.67812277      15.66836585      15.65861191      15.65034251      15.64273446      15.63617828      15.63202060      15.62795399      15.62247183      15.61750474      15.61332221      15.60874344      15.60368895      15.59777261      15.58944935      15.57982495
        15.57213453      15.56535078      15.55793650      15.55104427      15.54623070      15.54342885      15.54196944      15.54074993      15.53855638      15.53560793      15.53300113      15.52958979      15.52369482      15.51458663      15.50263602      15.48853133      15.47405794      15.46151946      15.45031464      15.43984026
        15.43143624      15.42521262      15.42079382      15.41798469      15.41602936      15.41482869      15.41460174      15.41542940      15.41687270      15.41867007      15.42061437      15.42278143      15.42509627      15.42698780      15.42794957      15.42793991      15.42746788      15.42693142      15.42632289      15.42615658
        18.96584474      18.91339831      18.80759236      18.66724055      18.52197196      18.36801529      18.21324016      18.07371184      17.93698194      17.78799497      17.63842036      17.49949045      17.36171275      17.21660129      17.06927282      16.92898336      16.80970236      16.72064407      16.65380410      16.59710299
        16.54539179      16.49817608      16.45744636      16.42286128      16.39073076      16.36006017      16.33206990      16.30522480      16.27708801      16.24635663      16.20914405      16.16126713      16.10817447      16.05945652      16.01281110      15.96467390      15.92037222      15.88001176      15.84071324      15.80825541
        15.78361324      15.76118420      15.74189833      15.72926338      15.72041367      15.71124457      15.70185494      15.69333462      15.68502286      15.67739229      15.67260081      15.66871659      15.66346654      15.65823069      15.65407638      15.64999088      15.64545563      15.64079955      15.63484972      15.62735604
        15.62031355      15.61331068      15.60508478      15.59649419      15.58942097      15.58447609      15.58140986      15.57945642      15.57694953      15.57326612      15.56955804      15.56557619      15.55996454      15.55122734      15.53877272      15.52303227      15.50612057      15.49117651      15.47816805      15.46609909
        15.45587817      15.44786557      15.44172164      15.43730038      15.43403269      15.43182210      15.43072010      15.43066131      15.43134502      15.43279811      15.43466525      15.43656426      15.43833599      15.43981729      15.44070662      15.44051425      15.43958916      15.43866016      15.43793354      15.43773280
        19.18134114      19.12855820      19.02569950      18.88230935      18.72750746      18.56315236      18.39481570      18.24091841      18.09678194      17.94359336      17.78543583      17.63469384      17.48914675      17.33995004      17.18744706      17.03821289      16.90539841      16.80258219      16.72628140      16.66483901
        16.61027033      16.55895609      16.51322124      16.47491548      16.44022631      16.40730507      16.37780698      16.35052792      16.32262920      16.29342206      16.26004302      16.21676595      16.16559867      16.11707016      16.07148626      16.02352863      15.97761657      15.93560340      15.89365814      15.85752742
        15.83085147      15.80740590      15.78581844      15.77068091      15.76093715      15.75180997      15.74251358      15.73431921      15.72649876      15.71863720      15.71305576      15.70905981      15.70418733      15.69893067      15.69452618      15.69053091      15.68625272      15.68227852      15.67772055      15.67121747
        15.66444246      15.65783544      15.65010650      15.64086431      15.63163271      15.62436774      15.61953875      15.61654744      15.61331891      15.60877239      15.60407558      15.59943620      15.59367237      15.58517807      15.57294215      15.55674490      15.53791802      15.51993637      15.50434899      15.49070071
        15.47908115      15.46925837      15.46115576      15.45524338      15.45102238      15.44793254      15.44587473      15.44503521      15.44520237      15.44607701      15.44712426      15.44816068      15.44929422      15.45035494      15.45093231      15.45049791      15.44949105      15.44859204      15.44780230      15.44730349
        19.38958809      19.33418972      19.23328282      19.09066471      18.92886331      18.75357344      18.57082988      18.40137837      18.24801572      18.09086887      17.92673395      17.76510511      17.61034611      17.45618003      17.29861936      17.14202230      16.99825043      16.88240433      16.79481396      16.72637138
        16.66845775      16.61413934      16.56420402      16.52233650      16.48548914      16.45074371      16.41981214      16.39198597      16.36402288      16.33568884      16.30557268      16.26746801      16.21953528      16.17161432      16.12745562      16.08114144      16.03502377      15.99210359      15.94812195      15.90800450