# File generated by Flopy version 3.5.0 on 03/06/2024 at 10:48:00.
BEGIN options
END options

BEGIN griddata
  icelltype
    CONSTANT  0
  k
    INTERNAL  FACTOR  1.0
         0.00278807       0.00129899       0.00131351       0.00138858       0.00171390       0.00194995       0.00221396       0.00290786       0.00345756       0.00369939       0.00477548       0.00604473       0.00534102       0.00451297       0.00471829       0.00446974       0.00387194       0.00400927       0.00378893       0.00278687
         0.00248049       0.00272672       0.00225413       0.00156771       0.00131037       0.00105885  7.92614596E-04  7.54572906E-04  7.75718834E-04  6.24775997E-04  5.14154589E-04  5.34552007E-04  5.06290046E-04  4.15901795E-04  3.89436706E-04  3.66503644E-04  3.24192603E-04  3.10985330E-04  3.18767023E-04  2.85553971E-04
    2.42495215E-04  2.57263784E-04  2.83415365E-04  3.07701419E-04  3.53298123E-04  3.88815242E-04  4.11795474E-04  4.55291712E-04  5.83620137E-04  6.67083028E-04  6.87842610E-04  7.06255602E-04  6.96109319E-04  7.24602712E-04  7.41609099E-04  6.88218132E-04  5.88631587E-04  5.24067024E-04  5.28298492E-04  5.40341875E-04
    5.90035371E-04  5.90755567E-04  4.99321502E-04  4.56120834E-04  4.59914169E-04  4.14183692E-04  3.54255395E-04  3.51200603E-04  3.63535787E-04  3.58237054E-04  4.17116229E-04  4.71749755E-04  3.86254891E-04  3.17993547E-04  3.34359610E-04  3.49477656E-04  3.36097850E-04  3.80914353E-04  3.99089271E-04  3.19189331E-04
    2.91028096E-04  2.97527026E-04  2.34967257E-04  1.70079896E-04  1.62023508E-04  1.59679796E-04  1.34496217E-04  1.40236038E-04  1.60066797E-04  1.54681179E-04  1.72790435E-04  2.31960163E-04  2.91294924E-04  2.76835115E-04  3.10928980E-04  3.92274395E-04  4.04252523E-04  4.53462767E-04  5.57179803E-04  6.11609176E-04
    8.60456991E-04       0.00118505       0.00125482       0.00129386       0.00159985       0.00184024       0.00202970       0.00265824       0.00327184       0.00339869       0.00421243       0.00578158       0.00565719       0.00475435       0.00489533       0.00477516       0.00406676       0.00414391       0.00418183       0.00312433
         0.00255636       0.00278737       0.00251552       0.00178417       0.00144842       0.00117798  8.52261059E-04  7.59592222E-04  8.02170153E-04  6.86778408E-04  5.50725105E-04  5.52055820E-04  5.39333057E-04  4.52128174E-04  4.10787398E-04  3.85619993E-04  3.39466094E-04  3.20195503E-04  3.29838376E-04  3.02412453E-04
    2.54057607E-04  2.48929173E-04  2.65366111E-04  2.94184947E-04  3.40409298E-04  3.88519110E-04  4.17233027E-04  4.48113324E-04  5.69069780E-04  6.62415953E-04  7.22709973E-04  7.57757220E-04  7.32708589E-04  7.53545553E-04  7.92683925E-04  7.72783664E-04  6.64370784E-04  5.82199892E-04  5.71654094E-04  5.67756440E-04
    6.36110045E-04  6.80122412E-04  5.82925012E-04  5.10137389E-04  5.12121337E-04  4.70289403E-04  3.89018529E-04  3.70338936E-04  3.72511345E-04  3.47447586E-04  3.83482494E-04  4.59043688E-04  4.06817255E-04  3.23806864E-04  3.23675763E-04  3.41940286E-04  3.25641679E-04  3.69417305E-04  4.15758555E-04  3.47003526E-04
    3.03335670E-04  3.17050278E-04  2.73660411E-04  1.94542606E-04  1.75722982E-04  1.75413712E-04  1.47509750E-04  1.45466490E-04  1.63236712E-04  1.58242743E-04  1.60777638E-04  2.11303092E-04  2.89453745E-04  2.89312341E-04  3.16668546E-04  3.90125884E-04  4.12700116E-04  4.45756741E-04  5.30657750E-04  6.12147703E-04
    6.82431885E-04       0.00100496       0.00113333       0.00114864       0.00141329       0.00165788       0.00178189       0.00229237       0.00294282       0.00302271       0.00350840       0.00502957       0.00551014       0.00473543       0.00479998       0.00483065       0.00407990       0.00401863       0.00428957       0.00335812
         0.00255508       0.00266539       0.00258087       0.00190564       0.00151431       0.00124136  8.80063827E-04  7.25816357E-04  7.63034615E-04  6.96934195E-04  5.59106263E-04  5.40561174E-04  5.35771270E-04  4.63632048E-04  4.14175354E-04  3.86693981E-04  3.37702057E-04  3.11901879E-04  3.23323447E-04  3.03085645E-04
    2.58348379E-04  2.39611669E-04  2.40878160E-04  2.65308846E-04  3.07124304E-04  3.61871407E-04  3.98798396E-04  4.26586518E-04  5.36709269E-04  6.19948505E-04  7.00539792E-04  7.58864327E-04  7.28891485E-04  7.26580260E-04  7.74946598E-04  7.99679393E-04  7.06953898E-04  6.16186360E-04  5.89731885E-04  5.60006346E-04
    6.22664313E-04  7.11243997E-04  6.39156710E-04  5.40678126E-04  5.35586185E-04  5.06757866E-04  4.11151182E-04  3.76626299E-04  3.70174070E-04  3.29676039E-04  3.37729563E-04  4.12015077E-04  4.00885102E-04  3.20009948E-04  3.04143869E-04  3.19252193E-04  2.99695997E-04  3.32397206E-04  3.96189266E-04  3.54336641E-04
    3.00790227E-04  3.13300299E-04  2.95045863E-04  2.13955661E-04  1.83134579E-04  1.82383753E-04  1.55550273E-04  1.46753542E-04  1.62951532E-04  1.62550821E-04  1.53274001E-04  1.89143294E-04  2.70057243E-04  2.88107818E-04  3.13035416E-04  3.74929829E-04  4.11210601E-04  4.38081374E-04  5.00578445E-04  5.96036026E-04
    5.47248385E-04  8.39371116E-04       0.00102048       0.00102953       0.00124865       0.00150033       0.00158528       0.00197154       0.00263768       0.00274645       0.00295470       0.00423618       0.00516736       0.00465875       0.00466824       0.00485061       0.00411541       0.00386682       0.00427676       0.00359388
         0.00260715       0.00253502       0.00256050       0.00198957       0.00156247       0.00129170  9.11619250E-04  6.95271763E-04  7.03980912E-04  6.76912220E-04  5.53785112E-04  5.18665205E-04  5.15029368E-04  4.61381348E-04  4.10741474E-04  3.82111446E-04  3.31741115E-04  2.96979873E-04  3.06106116E-04  2.91913545E-04
    2.56281255E-04  2.32859550E-04  2.20727142E-04  2.35660952E-04  2.69959362E-04  3.23410313E-04  3.62193784E-04  3.92115890E-04  4.92271609E-04  5.64575594E-04  6.49920845E-04  7.24814650E-04  7.03677830E-04  6.72814025E-04  7.09408150E-04  7.62014611E-04  7.01025010E-04  6.25287771E-04  5.90033997E-04  5.34296195E-04
    5.69061364E-04  6.78879422E-04  6.55029229E-04  5.43831045E-04  5.27122045E-04  5.16415434E-04  4.18547190E-04  3.71242507E-04  3.58182951E-04  3.08362648E-04  2.90774653E-04  3.44956991E-04  3.66065817E-04  3.02150028E-04  2.78905776E-04  2.87936360E-04  2.65351591E-04  2.81878781E-04  3.44913350E-04  3.34220222E-04
    2.79956974E-04  2.86083471E-04  2.89671446E-04  2.20484963E-04  1.81641890E-04  1.78131756E-04  1.54670668E-04  1.40285765E-04  1.53147404E-04  1.59530939E-04  1.44989163E-04  1.66381153E-04  2.38352293E-04  2.70622332E-04  2.95604395E-04  3.42014731E-04  3.83446279E-04  4.10751222E-04  4.56711709E-04  5.58123413E-04
    4.66444866E-04  7.24042425E-04  9.54619071E-04  9.78494565E-04       0.00116376       0.00143390       0.00150798       0.00178873       0.00246939       0.00267307       0.00268551       0.00369917       0.00492466       0.00475338       0.00474781       0.00509332       0.00441003       0.00393521       0.00438978       0.00400824
         0.00287002       0.00257374       0.00262675       0.00214903       0.00168287       0.00140276  9.99177737E-04  7.11654514E-04  6.76779530E-04  6.68679230E-04  5.64198351E-04  5.13173481E-04  5.05235351E-04  4.66273885E-04  4.18216419E-04  3.90332408E-04  3.38892308E-04  2.93231983E-04  2.95392639E-04  2.82286268E-04
    2.55383619E-04  2.32716435E-04  2.12678511E-04  2.16924948E-04  2.44207338E-04  2.95236939E-04  3.30895178E-04  3.61883354E-04  4.48307986E-04  5.13744481E-04  6.04411275E-04  6.92315443E-04  6.95687571E-04  6.40771900E-04  6.53309696E-04  7.11031673E-04  6.68334586E-04  6.21183871E-04  5.92423381E-04  5.22112252E-04
    5.21237889E-04  6.24431138E-04  6.54247473E-04  5.43128295E-04  5.10796718E-04  5.15921370E-04  4.24670204E-04  3.68006926E-04  3.51087458E-04  2.97655076E-04  2.59592633E-04  2.87549490E-04  3.23337295E-04  2.79036355E-04  2.56249804E-04  2.61997763E-04  2.38102970E-04  2.40011353E-04  2.90343249E-04  3.03224011E-04
    2.53941498E-04  2.51517458E-04  2.68415166E-04  2.17906359E-04  1.76651596E-04  1.69635331E-04  1.50092190E-04  1.31437269E-04  1.38991815E-04  1.50272216E-04  1.35531713E-04  1.45519294E-04  2.03907756E-04  2.46404514E-04  2.74882251E-04  3.08042561E-04  3.44321237E-04  3.66481445E-04  4.02276177E-04  5.04717415E-04
    4.27415105E-04  6.49698626E-04  9.24235500E-04  9.85789156E-04       0.00115194       0.00145802       0.00155205       0.00174252       0.00243719       0.00279641       0.00268175       0.00344634       0.00485796       0.00508449       0.00512334       0.00567346       0.00509977       0.00434719       0.00475844       0.00471224
         0.00345694       0.00287975       0.00288821       0.00247061       0.00194507       0.00163343       0.00118696  8.01908096E-04  7.05681534E-04  6.97496703E-04  6.10185876E-04  5.43415702E-04  5.24662386E-04  4.91908813E-04  4.46577136E-04  4.21439784E-04  3.68944531E-04  3.11498132E-04  3.03127343E-04  2.87006747E-04
    2.64329643E-04  2.43008615E-04  2.19295276E-04  2.12031934E-04  2.33215060E-04  2.85388751E-04  3.19745420E-04  3.52781665E-04  4.25511125E-04  4.79962234E-04  5.70454922E-04  6.75215319E-04  7.25297099E-04  6.58429643E-04  6.44117197E-04  6.99328670E-04  6.55461360E-04  6.21470387E-04  6.06492214E-04  5.39442942E-04
    5.07381185E-04  5.87118144E-04  6.66755161E-04  5.67257427E-04  5.15332385E-04  5.29059947E-04  4.47065146E-04  3.78852545E-04  3.60498727E-04  3.09032277E-04  2.52947084E-04  2.57287798E-04  2.94295641E-04  2.64802341E-04  2.42356380E-04  2.47730297E-04  2.26588377E-04  2.18194876E-04  2.53963922E-04  2.81496728E-04
    2.39393578E-04  2.26878798E-04  2.48338923E-04  2.16301756E-04  1.76317243E-04  1.65837652E-04  1.49892691E-04  1.27932109E-04  1.29483483E-04  1.42828739E-04  1.29865641E-04  1.30980638E-04  1.74045568E-04  2.24158308E-04  2.62091269E-04  2.89803390E-04  3.20317917E-04  3.30579407E-04  3.53776120E-04  4.43984355E-04
    4.11173173E-04  5.91352468E-04  8.89298261E-04       0.00100352       0.00115750       0.00150640       0.00165864       0.00176631       0.00244401       0.00300235       0.00283302       0.00334321       0.00481290       0.00547466       0.00564175       0.00644832       0.00612032       0.00506401       0.00531518       0.00562132
         0.00436234       0.00345103       0.00333950       0.00295242       0.00235492       0.00199258       0.00149127  9.75817370E-04  7.87983730E-04  7.59387661E-04  6.87341386E-04  6.09589515E-04  5.75422435E-04  5.39088668E-04  4.93995969E-04  4.72093688E-04  4.19381951E-04  3.51543961E-04  3.29551309E-04  3.08866601E-04
    2.86411185E-04  2.66307706E-04  2.40930308E-04  2.19863140E-04  2.32797138E-04  2.87532576E-04  3.25016017E-04  3.65176530E-04  4.33795446E-04  4.77857841E-04  5.51517975E-04  6.64582663E-04  7.78319219E-04  7.20602875E-04  6.84400547E-04  7.39869343E-04  6.90039701E-04  6.47592803E-04  6.37076272E-04  5.83017606E-04
    5.25338644E-04  5.75305624E-04  6.97981915E-04  6.25978885E-04  5.53825463E-04  5.68867274E-04  4.97004724E-04  4.09796290E-04  3.87813988E-04  3.44124725E-04  2.69950589E-04  2.54471187E-04  2.86227898E-04  2.67160966E-04  2.41742046E-04  2.45490161E-04  2.29498784E-04  2.13780253E-04  2.38441850E-04  2.76087065E-04
    2.42972349E-04  2.20366682E-04  2.39451522E-04  2.22285555E-04  1.85107729E-04  1.71064666E-04  1.58010256E-04  1.33362439E-04  1.29079726E-04  1.43083415E-04  1.32805485E-04  1.27070778E-04  1.54472948E-04  2.05472999E-04  2.57057057E-04  2.91047389E-04  3.23033246E-04  3.22671683E-04  3.31038856E-04  3.93896309E-04
    3.97630510E-04  5.27966293E-04  8.13034682E-04  9.75623640E-04       0.00111376       0.00148082       0.00171982       0.00176436       0.00235644       0.00309035       0.00296718       0.00321255       0.00454973       0.00556554       0.00593212       0.00699255       0.00710425       0.00584583       0.00580109       0.00638301
         0.00534473       0.00413987       0.00383888       0.00345872       0.00280931       0.00239836       0.00186193       0.00121214  9.01049799E-04  8.25056794E-04  7.62037445E-04  6.84668138E-04  6.37742159E-04  5.90683045E-04  5.43119873E-04  5.24659950E-04  4.73514255E-04  3.99609557E-04  3.63701080E-04  3.37461014E-04
    3.13283165E-04  2.96257122E-04  2.73204381E-04  2.37466344E-04  2.37246370E-04  2.90360844E-04  3.31312693E-04  3.80599681E-04  4.56949030E-04  5.04796921E-04  5.52924600E-04  6.51440919E-04  8.21464584E-04  7.93852041E-04  7.45651513E-04  8.05172148E-04  7.59076022E-04  7.00132289E-04  6.81742464E-04  6.42408636E-04
    5.58312776E-04  5.72211110E-04  7.21749094E-04  6.97539370E-04  6.13301997E-04  6.25330369E-04  5.68136991E-04  4.59123149E-04  4.26458149E-04  3.94398172E-04  3.02454716E-04  2.68302866E-04  2.92657419E-04  2.81805374E-04  2.53293960E-04  2.53925366E-04  2.42386937E-04  2.18846521E-04  2.34359479E-04  2.79884155E-04
    2.59223984E-04  2.29206206E-04  2.41577393E-04  2.34990020E-04  2.01681622E-04  1.84109398E-04  1.72583249E-04  1.45768016E-04  1.36078516E-04  1.49989624E-04  1.44056533E-04  1.34325708E-04  1.48137664E-04  1.91811878E-04  2.51664386E-04  3.01816621E-04  3.45037270E-04  3.41843306E-04  3.39556117E-04  3.71298782E-04
    3.74594583E-04  4.56688461E-04  6.95753336E-04  8.85030902E-04       0.00100152       0.00134004       0.00165293       0.00167657       0.00212413       0.00292185       0.00294033       0.00296211       0.00399376       0.00513817       0.00568964       0.00689718       0.00755376       0.00635894       0.00595445       0.00660325
         0.00598737       0.00468693       0.00418137       0.00378488       0.00313167       0.00270091       0.00217980       0.00144897       0.00101133  8.62756116E-04  7.92453376E-04  7.25792098E-04  6.77236310E-04  6.18557243E-04  5.66561110E-04  5.52457175E-04  5.06091378E-04  4.32817180E-04  3.87997628E-04  3.55510903E-04
    3.28120009E-04  3.15667432E-04  3.02930914E-04  2.57270745E-04  2.40496903E-04  2.85483359E-04  3.25913448E-04  3.76012955E-04  4.60874975E-04  5.31828913E-04  5.63190019E-04  6.27084790E-04  8.24139137E-04  8.37983768E-04  7.84953721E-04  8.44166101E-04  8.17281191E-04  7.47729880E-04  7.16381439E-04  6.96472847E-04
    5.89737090E-04  5.58148196E-04  7.00653259E-04  7.33483844E-04  6.55321421E-04  6.63005319E-04  6.29079685E-04  5.08347367E-04  4.60275776E-04  4.41940519E-04  3.38413048E-04  2.82923396E-04  2.97902461E-04  2.94010905E-04  2.66499222E-04  2.64569451E-04  2.58306591E-04  2.26592625E-04  2.30660957E-04  2.78272464E-04
    2.73175617E-04  2.41660790E-04  2.45306958E-04  2.45494368E-04  2.17779725E-04  1.98092987E-04  1.87082067E-04  1.58792763E-04  1.44006797E-04  1.55941751E-04  1.56451014E-04  1.47209906E-04  1.50681938E-04  1.83153217E-04  2.40579374E-04  3.05760084E-04  3.64828023E-04  3.68740179E-04  3.65661637E-04  3.71084510E-04
    3.44713167E-04  3.90704346E-04  5.74630774E-04  7.70567562E-04  8.66474514E-04       0.00114581       0.00149086       0.00153128       0.00183272       0.00257227       0.00276582       0.00265870       0.00333675       0.00438528       0.00502442       0.00622534       0.00733948       0.00649355       0.00580031       0.00628964
         0.00609680       0.00494849       0.00430278       0.00386869       0.00324570       0.00282613       0.00236469       0.00163489       0.00110318  8.72353764E-04  7.73881386E-04  7.16481007E-04  6.76822489E-04  6.11210101E-04  5.53844365E-04  5.43508301E-04  5.04659244E-04  4.37798005E-04  3.92487341E-04  3.55833450E-04
    3.22572525E-04  3.12002473E-04  3.15878770E-04  2.70890096E-04  2.39461355E-04  2.71684349E-04  3.08777976E-04  3.49125431E-04  4.28761108E-04  5.25145454E-04  5.57830734E-04  5.88113638E-04  7.77871561E-04  8.33362859E-04  7.82292707E-04  8.27767933E-04  8.26791262E-04  7.54905961E-04  7.12878838E-04  7.18243665E-04
    6.07596060E-04  5.32512951E-04  6.28433183E-04  6.99382827E-04  6.45710519E-04  6.48232015E-04  6.42640316E-04  5.29681361E-04  4.70096068E-04  4.65604708E-04  3.65624388E-04  2.88857552E-04  2.89060150E-04  2.89339092E-04  2.67322767E-04  2.64715295E-04  2.67128156E-04  2.31101350E-04  2.22020314E-04  2.62536224E-04
    2.70233599E-04  2.44084807E-04  2.39402243E-04  2.42802836E-04  2.22200775E-04  2.03218314E-04  1.93291574E-04  1.65204142E-04  1.46182137E-04  1.52795606E-04  1.59149178E-04  1.55676199E-04  1.53110084E-04  1.74221727E-04  2.21246974E-04  2.91192044E-04  3.61824493E-04  3.77443818E-04  3.83188336E-04  3.71668298E-04
    3.21722540E-04  3.43609731E-04  4.81901369E-04  6.79162950E-04  7.66815390E-04  9.88710308E-04       0.00133840       0.00141446       0.00160622       0.00223459       0.00258419       0.00244541       0.00283420       0.00369251       0.00433025       0.00543416       0.00683154       0.00648641       0.00564571       0.00586057
         0.00592339       0.00505606       0.00436627       0.00387921       0.00327601       0.00287090       0.00247467       0.00179531       0.00120661  8.93867424E-04  7.48028336E-04  6.87071240E-04  6.58893474E-04  5.90040111E-04  5.25269660E-04  5.15497338E-04  4.84663875E-04  4.25118075E-04  3.84974543E-04  3.49677376E-04
    3.08129923E-04  2.93297594E-04  3.11314466E-04  2.77035284E-04  2.37645262E-04  2.56413728E-04  2.90577679E-04  3.19141756E-04  3.81131334E-04  4.87082257E-04  5.25539674E-04  5.40438961E-04  7.05001210E-04  7.95995747E-04  7.59320117E-04  7.79992446E-04  8.00548862E-04  7.27664154E-04  6.74164672E-04  7.00238856E-04
    6.07539413E-04  5.13163952E-04  5.43974858E-04  6.15869324E-04  5.92307685E-04  5.89164593E-04  6.05990265E-04  5.14573098E-04  4.52632537E-04  4.60330090E-04  3.79109003E-04  2.89920207E-04  2.70408946E-04  2.69144848E-04  2.52581523E-04  2.50148896E-04  2.63525274E-04  2.30197893E-04  2.10856280E-04  2.38724912E-04
    2.51098397E-04  2.33446705E-04  2.22875312E-04  2.25644022E-04  2.11606697E-04  1.96058522E-04  1.88688616E-04  1.62936918E-04  1.41807540E-04  1.41095958E-04  1.48503834E-04  1.52478096E-04  1.49318646E-04  1.61635893E-04  1.95015858E-04  2.59284918E-04  3.33233166E-04  3.59066453E-04  3.75493415E-04  3.56858697E-04
    3.19058856E-04  3.24406646E-04  4.27385731E-04  6.23694373E-04  7.22272679E-04  9.09639426E-04       0.00126257       0.00139232       0.00151411       0.00203545       0.00251407       0.00241582       0.00260787       0.00328621       0.00388772       0.00489241       0.00645976       0.00666312       0.00580797       0.00572793
         0.00585830       0.00526271       0.00460662       0.00405577       0.00342626       0.00301140       0.00265303       0.00201805       0.00138414  9.83008012E-04  7.66708782E-04  6.82575368E-04  6.62817649E-04  5.91403405E-04  5.12884273E-04  4.97684078E-04  4.73288621E-04  4.17099634E-04  3.82092296E-04  3.54446618E-04
    3.03987864E-04  2.79256578E-04  3.03553503E-04  2.83234850E-04  2.41103925E-04  2.48362659E-04  2.82688292E-04  3.04939616E-04  3.46882062E-04  4.52231340E-04  4.90542808E-04  4.96614698E-04  6.32810309E-04  7.55729404E-04  7.51170941E-04  7.47781469E-04  7.85097278E-04  7.11308833E-04  6.38637387E-04  6.67332129E-04
    5.95537630E-04  5.08958597E-04  4.88689961E-04  5.35339324E-04  5.33762681E-04  5.26610469E-04  5.55023626E-04  4.85902732E-04  4.23797261E-04  4.39990044E-04  3.86045566E-04  2.96784597E-04  2.57777037E-04  2.49399103E-04  2.34307118E-04  2.30412641E-04  2.52076213E-04  2.27431229E-04  2.03510897E-04  2.19558439E-04
    2.30914727E-04  2.20118458E-04  2.06496621E-04  2.05672251E-04  1.94519084E-04  1.83205022E-04  1.79369336E-04  1.57564482E-04  1.36671466E-04  1.29322359E-04  1.33215935E-04  1.40829007E-04  1.40789689E-04  1.48140311E-04  1.68941220E-04  2.23245921E-04  2.94087616E-04  3.27822825E-04  3.52770757E-04  3.33150521E-04
    3.38694265E-04  3.35050440E-04  4.09472381E-04  5.97507117E-04  7.16194657E-04  8.92637006E-04       0.00125774       0.00146964       0.00156000       0.00199261       0.00257917       0.00257652       0.00264609       0.00317763       0.00373495       0.00466860       0.00636348       0.00715211       0.00643102       0.00606824
         0.00610844       0.00570628       0.00514766       0.00453878       0.00382622       0.00336736       0.00301494       0.00238786       0.00169753       0.00118985  8.66812505E-04  7.31596207E-04  7.13783728E-04  6.40981090E-04  5.39092582E-04  5.10142368E-04  4.88938230E-04  4.29129484E-04  3.94381339E-04  3.79170040E-04
    3.21733179E-04  2.82627902E-04  3.07201565E-04  3.00726056E-04  2.55780326E-04  2.51433984E-04  2.88457565E-04  3.11931714E-04  3.38161017E-04  4.44072588E-04  4.86570888E-04  4.78374652E-04  5.81461355E-04  7.29533676E-04  7.69628116E-04  7.56035904E-04  8.13029747E-04  7.43381145E-04  6.46257685E-04  6.59990938E-04
    5.95611610E-04  5.14550057E-04  4.68145845E-04  4.89038081E-04  4.99101681E-04  4.91136856E-04  5.25128777E-04  4.74390514E-04  4.06366012E-04  4.20993587E-04  3.95977619E-04  3.16242764E-04  2.61931281E-04  2.44498968E-04  2.26374052E-04  2.19190727E-04  2.43680784E-04  2.29082765E-04  2.04491792E-04  2.11346642E-04
    2.22545122E-04  2.16360997E-04  2.01614121E-04  1.96734888E-04  1.83558693E-04  1.74331872E-04  1.73181546E-04  1.55932819E-04  1.37160273E-04  1.25139622E-04  1.24106331E-04  1.30570082E-04  1.34003907E-04  1.39208265E-04  1.49693501E-04  1.94755041E-04  2.60595263E-04  3.01554205E-04  3.35120696E-04  3.19384013E-04
    3.65966027E-04  3.64788329E-04  4.15909313E-04  5.88884021E-04  7.22386415E-04  8.93504492E-04       0.00126566       0.00158261       0.00168532       0.00204312       0.00270585       0.00284342       0.00285181       0.00325065       0.00374283       0.00460095       0.00636325       0.00774604       0.00738183       0.00680408
         0.00661737       0.00629103       0.00589112       0.00527856       0.00445001       0.00392168       0.00356323       0.00291547       0.00216384       0.00154184       0.00106622  8.39077821E-04  8.10895307E-04  7.41831307E-04  6.07880482E-04  5.55216779E-04  5.33819775E-04  4.63599147E-04  4.20748413E-04  4.19340087E-04
    3.60122655E-04  3.03279409E-04  3.24027961E-04  3.33473543E-04  2.86038686E-04  2.67198495E-04  3.04944638E-04  3.32706558E-04  3.50047881E-04  4.59695648E-04  5.21420292E-04  5.00313294E-04  5.65316238E-04  7.25324850E-04  8.06552594E-04  7.97430749E-04  8.81432369E-04  8.27423354E-04  7.08661591E-04  7.00886419E-04
    6.34945322E-04  5.39160812E-04  4.69208576E-04  4.73574650E-04  4.89459882E-04  4.85173138E-04  5.25566894E-04  4.92261024E-04  4.14579940E-04  4.15980215E-04  4.13163078E-04  3.47449982E-04  2.82494282E-04  2.57911016E-04  2.33413248E-04  2.22731114E-04  2.47037446E-04  2.41160208E-04  2.16885637E-04  2.14060404E-04
    2.26975485E-04  2.25903492E-04  2.12487127E-04  2.05369108E-04  1.86723399E-04  1.76081739E-04  1.75406330E-04  1.61184471E-04  1.44979716E-04  1.30775411E-04  1.25521252E-04  1.28090553E-04  1.34044505E-04  1.39293218E-04  1.40902755E-04  1.77081142E-04  2.38071402E-04  2.85941942E-04  3.29128398E-04  3.25424714E-04
    3.74678039E-04  3.89811296E-04  4.24694917E-04  5.76047533E-04  7.14682883E-04  8.72200423E-04       0.00122149       0.00162746       0.00178038       0.00207560       0.00275457       0.00304722       0.00306169       0.00332923       0.00371378       0.00444188       0.00612369       0.00795403       0.00818317       0.00759319
         0.00710311       0.00670015       0.00648322       0.00598198       0.00506997       0.00447510       0.00413251       0.00347143       0.00268773       0.00199818       0.00134994  9.83508508E-04  9.22853294E-04  8.66520479E-04  7.00110907E-04  6.13852486E-04  5.89767801E-04  5.06938748E-04  4.47071737E-04  4.56998175E-04
    4.04941358E-04  3.29266554E-04  3.40615625E-04  3.69043394E-04  3.26347159E-04  2.91620917E-04  3.26272067E-04  3.55619016E-04  3.67350677E-04  4.76602124E-04  5.72227268E-04  5.51214583E-04  5.77611679E-04  7.35467607E-04  8.48306301E-04  8.47557258E-04  9.56497601E-04  9.33304622E-04  7.99413542E-04  7.73757898E-04
    7.11425480E-04  5.96401019E-04  4.89160428E-04  4.73152328E-04  4.86370242E-04  4.88467445E-04  5.38692581E-04  5.26263324E-04  4.43306503E-04  4.25247095E-04  4.34180664E-04  3.84407690E-04  3.12681090E-04  2.82123232E-04  2.49707994E-04  2.36311603E-04  2.60254896E-04  2.63474130E-04  2.41655573E-04  2.27683201E-04
    2.38645543E-04  2.42078420E-04  2.34161560E-04  2.28818418E-04  2.04039451E-04  1.89266208E-04  1.87325009E-04  1.73829449E-04  1.58092341E-04  1.43697407E-04  1.35377028E-04  1.32662843E-04  1.40597729E-04  1.48637041E-04  1.43228846E-04  1.69575125E-04  2.24756641E-04  2.76924737E-04  3.25701680E-04  3.43740097E-04
    3.51934733E-04  3.88579337E-04  4.17756290E-04  5.42395258E-04  6.77318208E-04  8.15754630E-04       0.00110928       0.00154876       0.00176329       0.00200846       0.00262788       0.00303950       0.00312954       0.00328286       0.00352489       0.00406169       0.00548254       0.00742557       0.00828695       0.00799329
         0.00726835       0.00664990       0.00654580       0.00626647       0.00537492       0.00474674       0.00446381       0.00383461       0.00307049       0.00242110       0.00165692       0.00112463       0.00100247  9.64654507E-04  7.79752716E-04  6.54776461E-04  6.25699021E-04  5.35275636E-04  4.53032387E-04  4.67029694E-04
    4.34590997E-04  3.44474502E-04  3.38227281E-04  3.82906161E-04  3.57878111E-04  3.11265134E-04  3.40454448E-04  3.69961826E-04  3.75155133E-04  4.70077246E-04  5.98294522E-04  5.96229887E-04  5.89404681E-04  7.30129195E-04  8.65667294E-04  8.74965444E-04  9.92219442E-04       0.00101202  8.69865932E-04  8.25775523E-04
    7.83202375E-04  6.69788237E-04  5.24879157E-04  4.77207866E-04  4.71690303E-04  4.74902576E-04  5.31990974E-04  5.43708630E-04  4.68576268E-04  4.31602365E-04  4.43322306E-04  4.11757922E-04  3.41788656E-04  3.05088545E-04  2.63527011E-04  2.46766908E-04  2.69513326E-04  2.84006773E-04  2.70892532E-04  2.48585557E-04
    2.52558902E-04  2.54349670E-04  2.53330103E-04  2.54432747E-04  2.26714070E-04  2.07564987E-04  2.03322757E-04  1.90085913E-04  1.72615237E-04  1.58820556E-04  1.48209775E-04  1.38560294E-04  1.47552385E-04  1.60930784E-04  1.52510008E-04  1.68797869E-04  2.15936974E-04  2.68632558E-04  3.13977430E-04  3.53981902E-04
    3.14012211E-04  3.64559315E-04  3.96384436E-04  4.94963635E-04  6.20865488E-04  7.42962333E-04  9.73163359E-04       0.00139528       0.00166139       0.00187540       0.00238200       0.00283795       0.00304828       0.00314023       0.00324586       0.00357385       0.00464890       0.00638904       0.00765136       0.00786877
         0.00711839       0.00623240       0.00609534       0.00604843       0.00528515       0.00465832       0.00446247       0.00391581       0.00319828       0.00268037       0.00192512       0.00124257       0.00103285       0.00100763  8.26266811E-04  6.64806139E-04  6.26460200E-04  5.37373493E-04  4.33925354E-04  4.40336679E-04
    4.34896868E-04  3.43505867E-04  3.13831607E-04  3.62211850E-04  3.62929922E-04  3.14262293E-04  3.36863570E-04  3.68490176E-04  3.69396895E-04  4.37194690E-04  5.76112012E-04  6.06013365E-04  5.76373459E-04  6.86039297E-04  8.29224386E-04  8.57593090E-04  9.64246563E-04       0.00102414  8.93566974E-04  8.18482248E-04
    7.99497627E-04  7.14993409E-04  5.59333213E-04  4.82696987E-04  4.42612332E-04  4.36457468E-04  4.88470733E-04  5.18977953E-04  4.64993085E-04  4.16350467E-04  4.24352533E-04  4.09592824E-04  3.54490065E-04  3.17520572E-04  2.66882666E-04  2.43513206E-04  2.60881889E-04  2.84807566E-04  2.87505829E-04  2.66100599E-04
    2.64265580E-04  2.57139969E-04  2.57986699E-04  2.66510051E-04  2.40795397E-04  2.19943102E-04  2.13107874E-04  2.01618917E-04  1.82313768E-04  1.69773752E-04  1.58747621E-04  1.40916570E-04  1.47496605E-04  1.65638019E-04  1.60037873E-04  1.68141895E-04  2.04984976E-04  2.55387044E-04  2.90633773E-04  3.40084533E-04
    2.84922434E-04  3.40497845E-04  3.78643240E-04  4.57190125E-04  5.72658502E-04  6.82090060E-04  8.65805189E-04       0.00125552       0.00156577       0.00178470       0.00217957       0.00260953       0.00293008       0.00303849       0.00305968       0.00320668       0.00397440       0.00540169       0.00678367       0.00752696
         0.00698042       0.00585213       0.00554363       0.00564606       0.00505319       0.00443218       0.00431583       0.00387698       0.00318434       0.00280084       0.00216837       0.00137401       0.00105446       0.00102472  8.61536908E-04  6.67652547E-04  6.12861436E-04  5.29354489E-04  4.08785266E-04  3.97226830E-04
    4.14167489E-04  3.36351761E-04  2.84631044E-04  3.22691504E-04  3.44660123E-04  3.03508385E-04  3.19098755E-04  3.54295300E-04  3.58067087E-04  3.98936249E-04  5.24582333E-04  5.87474870E-04  5.47171940E-04  6.17954123E-04  7.46468451E-04  8.01691470E-04  8.96926673E-04  9.77769535E-04  8.85263325E-04  7.77124816E-04
    7.61488237E-04  7.07638026E-04  5.72399469E-04  4.90863591E-04  4.13461273E-04  3.90532997E-04  4.26656851E-04  4.62984170E-04  4.32784056E-04  3.81573080E-04  3.81563047E-04  3.76122536E-04  3.43299645E-04  3.17206495E-04  2.62766891E-04  2.30236185E-04  2.37274812E-04  2.62252800E-04  2.78951117E-04  2.69891997E-04
    2.71501801E-04  2.54161365E-04  2.49925311E-04  2.61718375E-04  2.40715343E-04  2.20168551E-04  2.11094214E-04  2.03332184E-04  1.83384582E-04  1.72713271E-04  1.64662548E-04  1.40451488E-04  1.40463289E-04  1.58297731E-04  1.58983385E-04  1.61854552E-04  1.88525445E-04  2.35739605E-04  2.60036354E-04  3.04807904E-04