# File generated by Flopy version 3.5.0 on 03/08/2024 at 15:39:53.
BEGIN options
END options

BEGIN griddata
  icelltype
    CONSTANT  0
  k
    INTERNAL  FACTOR  1.0
    1.37483333E-05  9.11451382E-06  1.17402749E-05  1.59916716E-05  2.07934823E-05  2.41523673E-05  2.43890816E-05  2.83440097E-05  3.43855965E-05  4.24097981E-05  4.08658660E-05  4.37644059E-05  5.01870928E-05  5.69152053E-05  4.95624719E-05  3.02031186E-05  2.09787034E-05  1.77431883E-05  1.75686519E-05  1.46586719E-05
    1.24944151E-05  1.26806663E-05  1.40589113E-05  1.75278494E-05  2.19027110E-05  2.48402740E-05  3.06829650E-05  2.94442790E-05  3.76872864E-05  4.80274757E-05  6.28288664E-05  6.92570155E-05  5.91352443E-05  4.67467363E-05  3.35616330E-05  2.62352602E-05  2.12168353E-05  1.73630383E-05  1.45830166E-05  1.28190772E-05
    1.34664992E-05  1.31025563E-05  1.34001030E-05  1.36057738E-05  1.65736686E-05  2.60284994E-05  3.55968898E-05  3.61569948E-05  2.01523545E-05  1.02317385E-05  7.72873000E-06  7.90287624E-06  9.95920933E-06  9.60992474E-06  9.04492960E-06  7.94840434E-06  9.27205839E-06  1.24722675E-05  1.78129241E-05  2.91558137E-05
    3.80185338E-05  6.28755582E-05  1.23642058E-04  2.19330011E-04  2.75133852E-04  2.08659320E-04  1.31481860E-04  8.11551977E-05  5.80987601E-05  4.71146006E-05  2.72650292E-05  1.90213398E-05  1.27389257E-05  1.04847755E-05  7.94988538E-06  4.28273248E-06  2.44805440E-06  1.65482715E-06  2.01564303E-06  3.35117367E-06
    4.91819723E-06  6.61276876E-06  6.69041999E-06  7.56232853E-06  1.11538836E-05  1.99507764E-05  3.72645437E-05  5.56319015E-05  1.09634978E-04  2.09322549E-04  3.54463616E-04  4.76506891E-04  4.28614564E-04  3.10898268E-04  1.85946382E-04  1.08986548E-04  8.24746204E-05  8.11036554E-05  9.36515608E-05  8.46345238E-05
    9.10965404E-06  1.08843678E-05  1.35104228E-05  1.38416085E-05  1.70477065E-05  1.84933892E-05  2.37535150E-05  2.55069519E-05  3.21164797E-05  3.92645055E-05  5.01557823E-05  7.35377714E-05  1.08788239E-04  1.26487945E-04  9.46929837E-05  5.34045498E-05  3.62029158E-05  3.30976959E-05  2.74743015E-05  1.82902417E-05
    1.15211009E-05  1.34776563E-05  1.88510718E-05  2.94973122E-05  2.83907089E-05  3.58082949E-05  3.74510270E-05  5.15856248E-05  7.54905044E-05  1.02464949E-04  1.14576655E-04  1.07777439E-04  9.18621165E-05  8.19870265E-05  6.63394007E-05  4.59828271E-05  2.53020000E-05  1.56164087E-05  1.15012974E-05  1.02998277E-05
    1.26530683E-05  1.04045641E-05  9.37192302E-06  8.16155871E-06  1.04531765E-05  1.56223977E-05  2.32893003E-05  2.65498635E-05  1.62089716E-05  8.68447944E-06  5.89068522E-06  5.61276379E-06  6.84821638E-06  7.71932746E-06  7.79011869E-06  9.17790112E-06  1.04093655E-05  1.54499449E-05  1.90687045E-05  3.26208969E-05
    4.52070056E-05  5.98202702E-05  7.83133316E-05  1.28163344E-04  1.55654669E-04  1.58330430E-04  1.06734554E-04  6.71300366E-05  5.16476913E-05  5.04172231E-05  3.57969245E-05  2.10986677E-05  1.39944759E-05  1.23011727E-05  1.01361559E-05  6.97155056E-06  4.54573143E-06  2.72611265E-06  2.44806074E-06  2.59736483E-06
    3.93034724E-06  6.93258961E-06  8.57865473E-06  8.29836122E-06  8.46241686E-06  1.47166524E-05  2.82958307E-05  5.67841708E-05  1.13879715E-04  1.98499237E-04  3.11451410E-04  3.79611076E-04  4.41910241E-04  4.07687296E-04  1.89523805E-04  8.63159183E-05  4.38233689E-05  4.73874650E-05  5.63814749E-05  5.94920707E-05
    8.10773140E-06  9.35885563E-06  1.06859108E-05  1.10471335E-05  1.28689440E-05  1.60193198E-05  2.08255376E-05  2.24026941E-05  2.77840307E-05  4.22050063E-05  6.28130861E-05  1.19829388E-04  1.65544909E-04  2.09255754E-04  1.49583163E-04  9.77155931E-05  7.21946392E-05  6.56762644E-05  5.13169868E-05  3.10767918E-05
    1.96781519E-05  2.28210217E-05  3.01182041E-05  4.19813277E-05  4.30098856E-05  4.67976188E-05  6.40827549E-05  7.76237792E-05  1.21141138E-04  1.87318946E-04  2.29098250E-04  2.20912495E-04  1.79154998E-04  1.39006470E-04  1.05244225E-04  6.97179054E-05  4.57396318E-05  3.00095571E-05  1.95074806E-05  1.42722158E-05
    1.19709257E-05  1.05893257E-05  8.58011622E-06  7.48508463E-06  6.07307645E-06  7.13268466E-06  9.79475985E-06  1.50937209E-05  1.43674284E-05  9.76425922E-06  5.48000080E-06  4.28062841E-06  5.19520830E-06  6.66446557E-06  8.39188934E-06  9.41152218E-06  1.07011490E-05  1.22336646E-05  2.01134357E-05  3.38518692E-05
    4.13667172E-05  4.24584333E-05  3.90902290E-05  4.75508112E-05  8.49672187E-05  8.59720951E-05  6.66832354E-05  3.97727530E-05  3.59001670E-05  4.65366547E-05  4.28575367E-05  2.91222064E-05  1.34976172E-05  1.08432397E-05  1.15820148E-05  1.01186663E-05  7.64697070E-06  4.95244817E-06  3.18878117E-06  2.87619545E-06
    3.70979591E-06  7.84161018E-06  1.10170104E-05  1.07048938E-05  8.73213779E-06  1.15030140E-05  2.31171191E-05  4.57921287E-05  8.63692159E-05  1.33727161E-04  2.22426913E-04  3.22036934E-04  4.03181958E-04  3.49210894E-04  1.61991561E-04  5.78925556E-05  3.52879017E-05  3.26231580E-05  4.08186445E-05  3.87447744E-05
    5.64080172E-06  5.33904125E-06  6.91161227E-06  8.41209529E-06  1.21925926E-05  1.36427666E-05  1.73546868E-05  2.00625774E-05  3.35369376E-05  6.01108917E-05  1.05745046E-04  1.67002551E-04  2.17877341E-04  2.25546795E-04  2.00346127E-04  1.29991102E-04  9.63710564E-05  8.66991800E-05  8.24567839E-05  6.46649198E-05
    5.04074276E-05  4.71058168E-05  5.02974606E-05  5.79897222E-05  5.87251220E-05  6.85295941E-05  7.39413145E-05  8.76120734E-05  1.10222253E-04  1.93961660E-04  3.87100232E-04  4.67156913E-04  4.00152732E-04  2.48118531E-04  1.46196758E-04  1.30870059E-04  1.02178276E-04  8.16417933E-05  4.60780852E-05  2.56711033E-05
    1.97810407E-05  1.47766453E-05  1.31863200E-05  8.13752457E-06  4.97776891E-06  3.78760486E-06  4.73566820E-06  8.43858060E-06  1.09947380E-05  8.33604687E-06  4.99209198E-06  3.72174138E-06  5.34047747E-06  6.58363873E-06  7.72589902E-06  7.07943725E-06  7.82503791E-06  1.02770054E-05  1.71951936E-05  2.86912053E-05
    2.82134288E-05  2.23615714E-05  1.89047676E-05  2.33985695E-05  3.95248227E-05  4.82044515E-05  3.43552513E-05  2.41804626E-05  2.56240636E-05  3.72139427E-05  3.98459308E-05  2.37805435E-05  1.05261506E-05  7.43122329E-06  9.17136379E-06  1.06876893E-05  9.03184870E-06  5.75157177E-06  4.71831864E-06  4.08898595E-06
    5.71370737E-06  8.48993424E-06  1.26621734E-05  1.29029683E-05  1.09778269E-05  1.13996060E-05  1.75793378E-05  2.55143339E-05  4.24796265E-05  6.56411327E-05  1.40592446E-04  2.52462620E-04  3.34200298E-04  2.39278880E-04  1.01801196E-04  5.21469415E-05  3.11622709E-05  2.97692748E-05  2.82519468E-05  2.88338333E-05
    3.35403352E-06  3.35972804E-06  4.73688026E-06  7.24583180E-06  9.94801611E-06  1.07627459E-05  1.35203255E-05  1.89228104E-05  3.65928147E-05  6.52070394E-05  9.53183790E-05  1.52589700E-04  1.80131138E-04  2.13070079E-04  1.86963034E-04  1.16865757E-04  7.69249899E-05  6.51201602E-05  8.60653795E-05  9.11970744E-05
    8.68091637E-05  7.29385191E-05  6.15704387E-05  6.74229766E-05  7.14027050E-05  7.90453049E-05  7.85464873E-05  7.13408103E-05  8.81376082E-05  1.59873033E-04  3.69757920E-04  6.27104373E-04  5.68499647E-04  3.65081251E-04  2.22231678E-04  1.98303598E-04  1.76356140E-04  1.38515562E-04  8.07978266E-05  5.10555227E-05
    3.45754584E-05  2.61854532E-05  1.70398367E-05  1.12144653E-05  6.88495776E-06  4.93560243E-06  4.58684440E-06  5.91937811E-06  6.91204137E-06  6.74455280E-06  5.25268451E-06  4.60685400E-06  4.94494331E-06  5.39993660E-06  5.15762536E-06  4.81198147E-06  5.97382185E-06  8.64160184E-06  1.32501010E-05  2.01647225E-05
    2.05943880E-05  1.81899026E-05  1.37647648E-05  1.45928332E-05  1.88312014E-05  2.03788308E-05  1.99262552E-05  1.60911464E-05  1.61634664E-05  2.12196309E-05  1.91347948E-05  1.26137420E-05  7.35568377E-06  6.24494006E-06  6.73544489E-06  7.43454220E-06  7.77021558E-06  6.82377021E-06  7.78403618E-06  8.84723730E-06
    9.49752775E-06  1.06422705E-05  1.24812116E-05  1.44967820E-05  1.30704750E-05  1.29213318E-05  1.25220568E-05  1.49011376E-05  2.17952459E-05  3.78632232E-05  7.78271278E-05  1.55524256E-04  2.14339934E-04  1.73777902E-04  7.92130796E-05  4.53646789E-05  2.96095663E-05  2.40646057E-05  2.13876258E-05  2.32785125E-05
    3.27004895E-06  2.86454671E-06  3.68383571E-06  4.63997493E-06  5.80175837E-06  6.36685214E-06  1.06852357E-05  1.62068572E-05  3.03353976E-05  5.28655045E-05  8.00285880E-05  1.07621889E-04  1.38599008E-04  1.47061157E-04  1.27032906E-04  7.67277242E-05  4.98538493E-05  4.38706689E-05  5.44655039E-05  6.92582997E-05
    6.75626896E-05  6.89663861E-05  6.40844044E-05  6.77823901E-05  5.75946190E-05  6.10077267E-05  4.99710392E-05  5.39736298E-05  6.43257894E-05  1.22317741E-04  2.62187032E-04  4.80792474E-04  6.10128313E-04  5.37869490E-04  3.29564448E-04  2.55896952E-04  1.66570825E-04  1.35739252E-04  1.10410747E-04  9.12357981E-05
    7.62951599E-05  4.38284182E-05  2.48498141E-05  1.52675043E-05  1.22485563E-05  9.62004734E-06  6.81388712E-06  5.60268010E-06  4.60552064E-06  5.49263124E-06  6.11127556E-06  6.15985882E-06  5.77871910E-06  5.18927135E-06  4.83175601E-06  4.52348144E-06  5.13717182E-06  7.27424009E-06  1.06380749E-05  2.05158942E-05
    2.13772707E-05  2.21302467E-05  1.53698255E-05  1.13497983E-05  1.06063277E-05  1.09480372E-05  1.19100169E-05  1.16378194E-05  1.11751034E-05  1.07940683E-05  9.69103779E-06  7.78993903E-06  5.73380846E-06  5.07966978E-06  4.71387945E-06  4.93231392E-06  6.36855558E-06  7.90340122E-06  1.16006972E-05  1.21005595E-05
    1.46260405E-05  1.68463164E-05  1.72023268E-05  1.65523425E-05  1.36094208E-05  1.18065484E-05  1.15125099E-05  1.32454901E-05  2.03646629E-05  2.97722992E-05  5.13954048E-05  9.19569066E-05  1.31846270E-04  1.23583606E-04  6.11313214E-05  2.82674478E-05  1.83896745E-05  1.65285065E-05  1.49160546E-05  1.73714308E-05
    4.21518036E-06  3.25327406E-06  2.66227059E-06  2.48736048E-06  2.74356669E-06  3.11740384E-06  5.46296802E-06  9.37812015E-06  1.57098890E-05  2.91026671E-05  5.05672464E-05  7.94929269E-05  8.17472153E-05  7.94369278E-05  6.04893938E-05  4.63931803E-05  3.40955825E-05  2.67279661E-05  2.48427068E-05  2.44156489E-05
    3.02728839E-05  4.21049065E-05  5.78220252E-05  6.03236374E-05  4.53910616E-05  3.87927210E-05  3.92844300E-05  4.26434792E-05  6.06681701E-05  7.77498456E-05  1.59414532E-04  2.87815092E-04  5.63154592E-04  6.26788712E-04  4.20092233E-04  2.25671572E-04  1.36734788E-04  1.01837935E-04  9.85068970E-05  1.15563479E-04
    1.07449538E-04  7.25060629E-05  4.21139918E-05  2.75727593E-05  2.39033323E-05  1.82205339E-05  1.00218520E-05  6.38410738E-06  4.66109023E-06  6.13502119E-06  7.37153228E-06  7.93349995E-06  7.45904045E-06  6.91105860E-06  7.46574325E-06  7.21548763E-06  6.89590181E-06  7.54548298E-06  1.19939171E-05  2.32441913E-05
    3.14401388E-05  2.80331555E-05  1.92566948E-05  1.01270388E-05  7.14488758E-06  6.19430070E-06  7.03641137E-06  6.94529769E-06  6.77484303E-06  5.75960326E-06  5.67000291E-06  5.53089094E-06  4.73035413E-06  4.15016173E-06  4.18421841E-06  4.63818266E-06  5.89883747E-06  7.38202569E-06  1.00784149E-05  1.11886452E-05
    1.50274556E-05  2.08233780E-05  2.22066293E-05  1.66666527E-05  1.18316753E-05  1.13330504E-05  1.45140631E-05  1.91433891E-05  2.22925396E-05  2.23513110E-05  3.50589233E-05  5.38042789E-05  9.23895524E-05  7.28608998E-05  3.75142624E-05  1.76436716E-05  1.18399665E-05  1.07426127E-05  1.06545567E-05  1.06567477E-05
    4.87418632E-06  2.88405285E-06  1.98070871E-06  1.49060591E-06  1.61812864E-06  1.84124952E-06  2.50777839E-06  3.66216595E-06  7.53437033E-06  1.50950403E-05  3.28221738E-05  5.26532623E-05  4.27277828E-05  3.04290085E-05  2.83977995E-05  2.88217036E-05  2.61099864E-05  1.69295914E-05  1.20536727E-05  9.47998757E-06
    1.42260958E-05  2.76295164E-05  4.32794714E-05  4.52443967E-05  3.20364619E-05  2.81696015E-05  3.04340132E-05  3.63051210E-05  4.17542242E-05  5.07207054E-05  8.97782234E-05  1.95049212E-04  4.04827448E-04  6.12683984E-04  4.67484811E-04  2.78806741E-04  1.54420996E-04  1.07170627E-04  8.96567219E-05  1.02580760E-04
    1.23012860E-04  1.06964114E-04  7.77064768E-05  4.88840125E-05  3.34102221E-05  2.19411787E-05  1.30096616E-05  7.80911595E-06  6.21175402E-06  6.79377081E-06  8.51806591E-06  9.46680961E-06  1.14675352E-05  1.16960601E-05  1.28614942E-05  1.11114064E-05  1.00701561E-05  1.06570852E-05  1.69529052E-05  3.13909278E-05
    3.22681024E-05  2.93207417E-05  1.92433224E-05  1.35337742E-05  8.18937456E-06  4.59611527E-06  3.64157177E-06  4.02294935E-06  4.62670539E-06  4.97588396E-06  4.13872613E-06  3.70117526E-06  2.61133815E-06  3.07799539E-06  3.59894596E-06  5.00357452E-06  6.66260812E-06  5.82527481E-06  6.59197617E-06  7.66873888E-06
    1.29173329E-05  1.85632005E-05  1.80030237E-05  1.23331915E-05  8.57548864E-06  1.00937552E-05  1.87177124E-05  2.25668291E-05  2.35511328E-05  1.88252279E-05  2.55121004E-05  3.96863434E-05  5.77095073E-05  4.47988153E-05  2.12946993E-05  1.28727135E-05  1.17078894E-05  1.11454186E-05  9.25970786E-06  8.41024902E-06
    4.81263942E-06  2.71313807E-06  1.58674500E-06  1.26952332E-06  1.07009712E-06  1.11713651E-06  1.31912820E-06  1.97508710E-06  3.93157983E-06  1.01741404E-05  2.04703475E-05  3.10697975E-05  2.21205940E-05  1.57117440E-05  1.36714693E-05  1.58784388E-05  1.40137274E-05  1.05440299E-05  7.06094323E-06  5.79948814E-06
    7.45720550E-06  1.31046127E-05  2.28757935E-05  2.97880737E-05  2.51267417E-05  2.32874199E-05  2.08199592E-05  2.11759263E-05  2.37251093E-05  3.57229302E-05  7.29740611E-05  1.37510067E-04  2.54772935E-04  3.71370062E-04  4.15076533E-04  3.83170364E-04  2.47983780E-04  1.63136267E-04  9.97030408E-05  1.01916868E-04
    1.19025747E-04  1.37780339E-04  1.14552316E-04  5.69718398E-05  3.34813782E-05  1.96901003E-05  1.23593613E-05  9.22384692E-06  6.14099602E-06  7.23491760E-06  8.74453888E-06  1.16717741E-05  1.59261904E-05  1.80563035E-05  1.68987540E-05  1.28871341E-05  1.17282628E-05  1.59996472E-05  2.29196698E-05  3.32832495E-05
    2.54563631E-05  2.13907930E-05  1.83140791E-05  1.56633986E-05  8.92506409E-06  4.29772372E-06  2.52257450E-06  2.81706486E-06  3.77239425E-06  4.01799227E-06  3.19793970E-06  2.44594987E-06  1.90412147E-06  2.22081720E-06  2.86950066E-06  3.96494000E-06  5.29420947E-06  5.14830065E-06  4.71259093E-06  5.31325405E-06
    7.83413195E-06  1.05429056E-05  9.88756044E-06  7.06755186E-06  5.98112888E-06  8.39924809E-06  1.25815972E-05  1.76305624E-05  1.75709518E-05  1.77322768E-05  2.13957981E-05  2.73635620E-05  3.36881481E-05  2.65071000E-05  1.75968961E-05  1.43088967E-05  1.42039146E-05  1.67838566E-05  1.19387965E-05  8.36291602E-06
    5.14202604E-06  3.28817941E-06  2.03024043E-06  1.40239957E-06  1.05371034E-06  9.19224333E-07  1.23991930E-06  1.77925814E-06  3.40549651E-06  6.16999230E-06  1.39266283E-05  2.10429269E-05  1.83636106E-05  1.31846691E-05  8.33183191E-06  7.70306877E-06  8.71815087E-06  8.22455430E-06  7.63637894E-06  6.11954462E-06
    6.19204088E-06  8.37594761E-06  1.18181604E-05  1.99352681E-05  1.88931505E-05  1.91539010E-05  1.32609735E-05  1.11488659E-05  1.28940139E-05  2.51872987E-05  5.59661941E-05  1.09249965E-04  1.80203132E-04  3.00595995E-04  4.28103775E-04  5.10900863E-04  3.83834756E-04  2.36698200E-04  1.52710633E-04  1.33442666E-04
    1.47497464E-04  1.43161873E-04  1.20084808E-04  5.77232303E-05  3.18841347E-05  1.86134643E-05  1.18930489E-05  7.10601376E-06  5.41633495E-06  5.57629414E-06  9.17920419E-06  1.34379946E-05  1.72997491E-05  1.88272042E-05  1.63955346E-05  1.21812252E-05  1.20229710E-05  1.47788279E-05  2.07331270E-05  2.15494511E-05
    1.47784455E-05  1.31975618E-05  1.36682820E-05  1.41819850E-05  9.10936952E-06  4.89587814E-06  3.45743916E-06  2.99944108E-06  3.49446817E-06  3.31062040E-06  2.51806974E-06  2.31577769E-06  1.79024003E-06  1.78760731E-06  2.06355944E-06  2.78770449E-06  3.97130925E-06  4.00286856E-06  3.76195381E-06  2.91807027E-06
    3.29187610E-06  4.07449455E-06  4.11556693E-06  3.89333904E-06  3.84420952E-06  5.47373011E-06  8.25244317E-06  1.12030351E-05  1.55859974E-05  1.59915289E-05  2.06442416E-05  2.26643874E-05  2.73162950E-05  2.66391417E-05  2.41968985E-05  2.06415089E-05  2.03771974E-05  2.20189580E-05  2.25258575E-05  1.60347340E-05
    5.33731341E-06  4.24739681E-06  2.93618554E-06  1.63819705E-06  1.10148361E-06  1.00192950E-06  1.65488957E-06  2.42826878E-06  3.81909173E-06  6.02462310E-06  1.16474320E-05  2.46499357E-05  2.27144969E-05  1.36868243E-05  7.05529373E-06  5.75388647E-06  6.45236505E-06  8.02319956E-06  8.00177988E-06  7.52611674E-06
    7.45336342E-06  8.68842896E-06  1.12075994E-05  1.35192589E-05  1.52594754E-05  1.52115286E-05  1.21942681E-05  1.05726633E-05  1.21454965E-05  1.86758463E-05  3.85490114E-05  6.67765715E-05  1.47079016E-04  2.51836274E-04  4.40362862E-04  4.95414914E-04  3.90690858E-04  3.17403286E-04  2.40708220E-04  2.14699312E-04
    1.63111125E-04  1.07695484E-04  8.48399550E-05  5.60888386E-05  3.90794901E-05  2.08782913E-05  1.06882775E-05  6.65991002E-06  4.77176982E-06  6.51913298E-06  9.27092421E-06  1.33612065E-05  1.59333360E-05  1.50461917E-05  1.55752707E-05  1.14673768E-05  1.05564363E-05  1.00704696E-05  1.18455447E-05  1.30267994E-05
    9.97524102E-06  7.90089901E-06  7.05184937E-06  6.21028169E-06  5.72308688E-06  4.74334559E-06  5.26524143E-06  4.40841042E-06  3.67237788E-06  2.61967573E-06  2.40866545E-06  2.59354681E-06  2.43732486E-06  2.06430638E-06  1.76198957E-06  2.28556002E-06  3.49720926E-06  4.10273243E-06  3.09906518E-06  1.89207929E-06
    1.57485452E-06  1.71529149E-06  1.91457830E-06  2.01637622E-06  2.09887574E-06  3.19803638E-06  5.23962473E-06  8.96283093E-06  1.26390020E-05  1.58876067E-05  1.89423044E-05  1.94855900E-05  2.79097696E-05  3.49193099E-05  3.91695267E-05  3.31424656E-05  3.02630002E-05  3.47924170E-05  4.47347089E-05  4.06503603E-05
    5.37300210E-06  4.54903909E-06  3.10788643E-06  1.90896089E-06  1.24268206E-06  1.37699440E-06  2.07988043E-06  2.91536556E-06  4.70907457E-06  7.56714047E-06  1.64902848E-05  3.13530686E-05  2.94244305E-05  1.64280899E-05  8.60953396E-06  7.01036892E-06  6.93099116E-06  7.07774485E-06  7.34988292E-06  6.94339646E-06
    9.83940385E-06  1.39827017E-05  1.38540017E-05  1.26813496E-05  1.07507036E-05  1.47877519E-05  1.72756212E-05  1.90631555E-05  1.69175465E-05  1.91756629E-05  2.74176894E-05  4.83160699E-05  1.02448410E-04  2.29629135E-04  3.01253494E-04  3.51174183E-04  2.98248502E-04  3.76523895E-04  3.60758530E-04  3.22177677E-04
    1.78082302E-04  1.01438311E-04  7.97498909E-05  6.43822651E-05  4.48592595E-05  2.31174955E-05  1.17694202E-05  7.71553959E-06  7.28075072E-06  8.29849787E-06  9.85424171E-06  1.15067822E-05  1.56421848E-05  1.91359831E-05  1.94388134E-05  1.26805973E-05  9.03754514E-06  6.84407365E-06  7.94433520E-06  8.31853113E-06
    6.90577769E-06  5.54257942E-06  3.71736202E-06  3.16382296E-06  3.10703024E-06  3.88987036E-06  5.05604331E-06  5.26018909E-06  4.10199630E-06  3.57862560E-06  3.63207560E-06  4.76339736E-06  3.97945177E-06  3.59249878E-06  3.08604116E-06  3.76975833E-06  5.09229984E-06  4.94049067E-06  2.68245466E-06  1.43819105E-06
    1.21708913E-06  1.16851012E-06  1.12461897E-06  1.08929578E-06  1.19205968E-06  2.18177462E-06  4.41480663E-06  7.61695442E-06  1.17545715E-05  1.48984871E-05  1.95717826E-05  2.19437570E-05  3.27881086E-05  4.37114383E-05  4.49281896E-05  4.14388041E-05  3.84329779E-05  5.42557606E-05  7.24584889E-05  7.90160845E-05
    4.38109035E-06  3.87000341E-06  2.64079152E-06  2.06318989E-06  1.68078737E-06  1.51710071E-06  1.88218254E-06  2.47482379E-06  4.54909699E-06  9.91382008E-06  2.00354936E-05  3.15991438E-05  2.40059303E-05  1.66624929E-05  1.15253858E-05  9.77042110E-06  8.69223962E-06  6.82116842E-06  5.42194001E-06  6.01814743E-06
    1.06409419E-05  1.87422792E-05  2.08467772E-05  1.49475307E-05  1.16733607E-05  1.64665149E-05  2.41718809E-05  2.96157933E-05  2.29570638E-05  2.28530340E-05  2.82416092E-05  3.78255067E-05  6.89432125E-05  1.32563382E-04  1.91554955E-04  2.40326701E-04  2.44947545E-04  3.65998917E-04  4.18243440E-04  3.71629831E-04
    2.04012366E-04  1.20025470E-04  1.00109571E-04  7.88418256E-05  4.90950837E-05  2.58229243E-05  1.56660983E-05  1.24370399E-05  1.14480042E-05  1.21976918E-05  1.06816782E-05  1.26697646E-05  1.85642547E-05  2.53925213E-05  2.64183549E-05  1.60136931E-05  1.03491661E-05  7.39621232E-06  6.55937922E-06  6.50902531E-06
    4.98333735E-06  4.51057683E-06  3.23136292E-06  2.40184999E-06  2.26310873E-06  2.68813765E-06  4.01127538E-06  4.53139463E-06  5.28188692E-06  5.22730038E-06  6.29414514E-06  7.83899338E-06  8.75990617E-06  9.42600803E-06  9.45959270E-06  9.48951527E-06  8.65375251E-06  6.17776643E-06  4.06410107E-06  1.88171274E-06
    1.49142607E-06  1.10028611E-06  7.91503798E-07  7.47030121E-07  8.95846649E-07  1.83310823E-06  3.04977493E-06  4.63889621E-06  7.21736986E-06  1.20462446E-05  1.80554009E-05  2.02496470E-05  2.26529243E-05  2.83833173E-05  3.81618437E-05  4.68094238E-05  4.87123052E-05  6.14673099E-05  7.36632184E-05  7.90430459E-05
    3.76304565E-06  2.95090987E-06  2.25158513E-06  2.15837467E-06  2.14309027E-06  1.91368456E-06  2.05796282E-06  2.39914597E-06  4.73158926E-06  9.22511734E-06  1.98539581E-05  2.32702322E-05  2.02362150E-05  1.37394139E-05  1.22094792E-05  1.13724517E-05  9.35621121E-06  6.42797196E-06  4.88450094E-06  5.02265934E-06
    8.68685104E-06  1.41155822E-05  2.03888929E-05  2.17483701E-05  1.92989684E-05  2.54922145E-05  3.42197387E-05  4.49287311E-05  4.39224681E-05  4.32332725E-05  4.14897396E-05  4.32613507E-05  5.74707413E-05  8.91040529E-05  1.41366241E-04  2.06585773E-04  2.24114483E-04  3.00726073E-04  3.94766488E-04  3.84102712E-04
    2.32883930E-04  1.42958563E-04  1.15492195E-04  8.74079286E-05  6.79105626E-05  3.43289676E-05  2.30624417E-05  1.92159424E-05  1.73836010E-05  1.78766757E-05  1.71800882E-05  1.91453656E-05  2.37493766E-05  2.57596331E-05  2.61350413E-05  1.91050659E-05  1.58161378E-05  1.00435850E-05  6.18964636E-06  4.30663954E-06
    3.84059145E-06  4.42166186E-06  4.30347810E-06  3.33206036E-06  2.45878643E-06  2.28413380E-06  3.39474864E-06  4.71342436E-06  6.91065836E-06  8.36632191E-06  9.77420426E-06  1.19966946E-05  1.85944177E-05  2.80790900E-05  3.28920407E-05  2.67614818E-05  1.79891226E-05  1.11482171E-05  7.44528017E-06  4.04782392E-06
    2.11264255E-06  1.10915927E-06  7.32174872E-07  6.25321756E-07  8.74624305E-07  1.54626899E-06  2.28105221E-06  2.76529318E-06  4.04377388E-06  7.47979172E-06  1.27111832E-05  1.24730061E-05  1.21650369E-05  1.34242667E-05  2.59475122E-05  4.14319393E-05  5.07459479E-05  5.93539778E-05  6.64517401E-05  7.68847883E-05
    4.83318777E-06  3.60321784E-06  2.76962373E-06  2.33645898E-06  2.35609802E-06  2.48240701E-06  2.76991199E-06  2.84154540E-06  4.46012836E-06  8.44530508E-06  1.42264459E-05  1.81962193E-05  1.59775738E-05  1.30305232E-05  9.87356705E-06  1.02380188E-05  8.45380336E-06  6.62776304E-06  5.06202030E-06  3.74618516E-06
    4.42346811E-06  7.58794473E-06  1.56841886E-05  2.60530776E-05  3.04881245E-05  3.43489177E-05  4.25935528E-05  6.88522509E-05  9.83315066E-05  1.02543414E-04  9.73621697E-05  7.21059047E-05  8.61900047E-05  1.13041030E-04  1.53310958E-04  1.84486501E-04  1.74797124E-04  2.27730542E-04  3.42785748E-04  4.10994979E-04
    2.53908685E-04  1.34448429E-04  9.66064437E-05  9.59670279E-05  9.19215403E-05  6.49414091E-05  3.56680716E-05  2.52070711E-05  2.00816222E-05  2.34735399E-05  2.70657591E-05  3.24457361E-05  2.79687378E-05  2.27175581E-05  1.84590676E-05  1.80858997E-05  1.80939082E-05  1.14066691E-05  5.41077521E-06  3.37283707E-06
    3.74969465E-06  5.68450334E-06  6.13655883E-06  4.63663599E-06  3.47344701E-06  3.26935651E-06  4.28410853E-06  5.36142049E-06  7.70821767E-06  9.49184918E-06  1.40183510E-05  2.06180722E-05  3.47495547E-05  6.52971409E-05  7.68010692E-05  6.68852518E-05  4.55340677E-05  2.85180291E-05  1.70918312E-05  7.21928824E-06
    3.49365759E-06  1.49094284E-06  8.16967403E-07  7.83142890E-07  7.48553064E-07  1.09833918E-06  1.47590753E-06  1.88305716E-06  2.82745068E-06  4.48697488E-06  6.49050386E-06  5.74738732E-06  6.04183311E-06  7.70057239E-06  1.40835070E-05  2.60683705E-05  3.59576439E-05  4.52890244E-05  5.32682954E-05  6.18555777E-05
    7.65542004E-06  5.92500909E-06  2.82554858E-06  2.23421124E-06  2.57300468E-06  4.13194131E-06  5.18156683E-06  4.45954479E-06  4.27189133E-06  6.40725061E-06  1.14418697E-05  1.50999123E-05  1.28855217E-05  9.77938841E-06  7.02571311E-06  6.75587751E-06  6.46816706E-06  5.65543884E-06  3.79005091E-06  2.12347159E-06
    2.00303532E-06  3.31260191E-06  9.17743991E-06  1.94477009E-05  2.84898581E-05  3.55626878E-05  5.20766519E-05  1.07590550E-04  1.74209848E-04  2.11547462E-04  1.82110266E-04  1.60913246E-04  1.85023627E-04  2.58114943E-04  2.55601721E-04  1.99513136E-04  1.69839384E-04  2.29760229E-04  3.29056412E-04  4.50419658E-04
    2.36933314E-04  1.19559517E-04  7.81523638E-05  7.71492928E-05  9.07705430E-05  6.74736983E-05  4.19188469E-05  2.43453582E-05  1.92625687E-05  2.68590862E-05  3.18838044E-05  3.55964540E-05  3.12575194E-05  2.09618337E-05  1.82457321E-05  1.58407719E-05  1.62885362E-05  1.01085303E-05  5.30909431E-06  3.46151931E-06
    3.61652537E-06  5.60864081E-06  5.77151128E-06  5.43386263E-06  5.77860205E-06  7.79714416E-06  8.24859571E-06  6.87138690E-06  7.33630775E-06  1.11087338E-05  1.87464013E-05  3.32007504E-05  4.72178263E-05  8.22792028E-05  1.12892617E-04  1.22915114E-04  9.23952532E-05  6.11782463E-05  3.02752745E-05  1.18660264E-05
    5.21429336E-06  2.46541696E-06  1.29278509E-06  8.18343070E-07  8.31582319E-07  9.36851098E-07  1.50461973E-06  2.12518013E-06  2.42620462E-06  2.72239277E-06  3.00679698E-06  2.98354695E-06  4.17880476E-06  4.90108021E-06  7.61837784E-06  1.16532527E-05  2.05612924E-05  3.70509843E-05  4.93224228E-05  5.20672716E-05
    1.11808896E-05  6.70804290E-06  3.28232200E-06  2.32882755E-06  2.95447533E-06  5.27779393E-06  6.27695024E-06  6.12635840E-06  5.89392396E-06  7.17592130E-06  1.20146732E-05  1.32747793E-05  9.32290469E-06  6.65296266E-06  5.12608119E-06  5.05768986E-06  4.05876124E-06  3.02923710E-06  2.03786539E-06  1.19691837E-06
    1.15796492E-06  1.62293978E-06  3.94093348E-06  1.02357568E-05  1.79149389E-05  3.02547240E-05  5.58259426E-05  1.26932871E-04  2.07939339E-04  2.44124700E-04  2.58927262E-04  2.70727918E-04  4.00071608E-04  4.54171418E-04  3.51971395E-04  2.44368253E-04  1.87368999E-04  2.36124462E-04  3.08687085E-04  3.19850456E-04
    1.93186554E-04  9.15382838E-05  6.42833381E-05  4.79775097E-05  4.87076972E-05  4.01374035E-05  2.86066162E-05  1.93612685E-05  1.57966894E-05  1.77702943E-05  2.33625755E-05  2.71286830E-05  2.76951237E-05  2.41299548E-05  1.89339984E-05  1.52061036E-05  1.15187637E-05  7.73896058E-06  5.53526265E-06  4.01020471E-06
    3.51289296E-06  3.84317415E-06  3.65856811E-06  4.40460736E-06  6.43810779E-06  1.14938468E-05  1.46604819E-05  1.14903833E-05  1.01186876E-05  1.24158592E-05  2.32363800E-05  3.51565305E-05  5.18954144E-05  8.12475259E-05  1.23944323E-04  1.49131791E-04  1.21966213E-04  6.78623078E-05  3.73999894E-05  1.62134116E-05
    8.04281113E-06  3.59263834E-06  1.91030112E-06  1.13601991E-06  9.18976149E-07  1.17807318E-06  1.63850226E-06  2.31659373E-06  2.56131186E-06  2.16968911E-06  2.03412937E-06  2.04202394E-06  2.72714933E-06  3.24496570E-06  4.08569916E-06  6.63682406E-06  1.29582213E-05  2.63881025E-05  3.61396717E-05  3.30139200E-05
    8.08419808E-06  6.27199546E-06  3.48458309E-06  3.10079698E-06  3.40998729E-06  4.45885626E-06  6.21053273E-06  6.69470346E-06  9.04316051E-06  1.07672441E-05  1.25086616E-05  1.11992713E-05  7.56371472E-06  5.57051430E-06  4.19368893E-06  3.49565665E-06  2.32719054E-06  1.41108539E-06  1.16722096E-06  9.54774526E-07
    8.34618149E-07  9.45375962E-07  1.78877504E-06  4.15464386E-06  8.85447427E-06  1.79456534E-05  3.52277798E-05  8.45323910E-05  1.42372708E-04  2.02892300E-04  2.49020627E-04  3.39798174E-04  4.74341848E-04  4.98132050E-04  4.67589367E-04  4.03089172E-04  3.47852683E-04  2.97276650E-04  2.53665769E-04  2.12988660E-04
    1.28627706E-04  7.96237597E-05  4.57860011E-05  2.36459923E-05  1.84864176E-05  1.36658555E-05  1.31121151E-05  1.14316979E-05  9.29046468E-06  8.91601438E-06  1.07322473E-05  1.62009985E-05  2.01911708E-05  2.11355231E-05  1.99280090E-05  1.39144205E-05  1.09329720E-05  6.65279199E-06  4.77622793E-06  4.05247605E-06
    3.43946182E-06  3.11179430E-06  2.69973790E-06  3.37654377E-06  5.32095358E-06  9.58804537E-06  1.61486759E-05  1.67945232E-05  1.62783602E-05  1.56791686E-05  2.03113663E-05  2.85580114E-05  4.05086464E-05  7.66213675E-05  1.15325979E-04  1.44796136E-04  1.14634215E-04  7.30715942E-05  4.14277567E-05  2.39176119E-05
    1.20551977E-05  5.19299916E-06  2.60517306E-06  1.68004677E-06  1.35424907E-06  1.46230270E-06  1.68102195E-06  2.14185967E-06  2.21248835E-06  2.13803627E-06  1.74087045E-06  1.46360302E-06  1.98930205E-06  2.38554197E-06  3.64477994E-06  5.30933750E-06  9.88282583E-06  1.72933937E-05  2.20820911E-05  2.29888314E-05
    3.76727361E-06  3.79069531E-06  3.85679515E-06  3.70606292E-06  3.42741876E-06  3.58169392E-06  4.18565533E-06  6.81739480E-06  1.09694293E-05  1.37775269E-05  1.33146211E-05  9.30952944E-06  6.79968562E-06  5.96769579E-06  3.71687177E-06  2.56510739E-06  1.32252679E-06  9.27970530E-07  7.52055242E-07  7.41072943E-07
    6.41678731E-07  6.57963104E-07  1.08648836E-06  2.42447178E-06  5.00641097E-06  1.01565977E-05  1.79858736E-05  3.95573052E-05  7.60419119E-05  1.28741479E-04  1.83285329E-04  2.33060823E-04  3.28677852E-04  4.00305568E-04  4.87636906E-04  5.47248645E-04  5.02949305E-04  4.03724397E-04  2.50169508E-04  1.72334993E-04