# File generated by Flopy version 3.5.0 on 03/08/2024 at 15:39:53.
BEGIN griddata
  strt
    INTERNAL  FACTOR  1.0
        15.00000000      15.00000000      15.00000000      15.00000000      15.00000000      15.00000000      15.00000000      15.00000000      15.00000000      15.00000000      15.00000000      15.00000000      15.00000000      15.00000000      15.00000000      15.00000000      15.00000000      15.00000000      15.00000000      15.00000000
        15.00000000      15.00000000      15.00000000      15.00000000      15.00000000      15.00000000      15.00000000      15.00000000      15.00000000      15.00000000      15.00000000      15.00000000      15.00000000      15.00000000      15.00000000      15.00000000      15.00000000      15.00000000      15.00000000      15.00000000
        15.00000000      15.00000000      15.00000000      15.00000000      15.00000000      15.00000000      15.00000000      15.00000000      15.00000000      15.00000000      15.00000000      15.00000000      15.00000000      15.00000000      15.00000000      15.00000000      15.00000000      15.00000000      15.00000000      15.00000000
        15.00000000      15.00000000      15.00000000      15.00000000      15.00000000      15.00000000      15.00000000      15.00000000      15.00000000      15.00000000      15.00000000      15.00000000      15.00000000      15.00000000      15.00000000      15.00000000      15.00000000      15.00000000      15.00000000      15.00000000
        15.00000000      15.00000000      15.00000000      15.00000000      15.00000000      15.00000000      15.00000000      15.00000000      15.00000000      15.00000000      15.00000000      15.00000000      15.00000000      15.00000000      15.00000000      15.00000000      15.00000000      15.00000000      15.00000000      15.00000000
        15.38820620      15.38309462      15.36404553      15.33940230      15.31757886      15.30685233      15.30135879      15.28784933      15.27725742      15.27809542      15.29133162      15.30640211      15.30591352      15.29542985      15.27442169      15.24900920      15.21586503      15.18584396      15.15829901      15.13193864
        15.11095018      15.10318947      15.10152920      15.10212277      15.09840838      15.09696435      15.09809029      15.10477241      15.11312136      15.12137662      15.12568998      15.12647576      15.12517327      15.12051753      15.11171504      15.09750649      15.08013493      15.06745227      15.06164545      15.05930038
        15.05732354      15.05712523      15.05695445      15.05751107      15.05606301      15.05368893      15.05194683      15.05428202      15.06133400      15.06676854      15.06801806      15.06965896      15.07044770      15.07093135      15.07065789      15.06945779      15.06650894      15.06250019      15.05987746      15.05612002
        15.05136874      15.04350762      15.03456247      15.02877734      15.02900455      15.03168305      15.03684120      15.04350699      15.05086879      15.05763723      15.06459268      15.06805006      15.06886262      15.07005243      15.07241624      15.07461914      15.07597552      15.07789244      15.07875431      15.07910574
        15.07960003      15.08146540      15.08381393      15.08330909      15.07890232      15.07119208      15.06108564      15.04984400      15.03926078      15.03234139      15.02971099      15.03002314      15.03220247      15.03437282      15.03675900      15.04130357      15.04844487      15.05075871      15.05079618      15.05107754
        15.72967299      15.71135041      15.69215793      15.67477733      15.65107375      15.62395286      15.59711038      15.57509524      15.55739728      15.54165312      15.52407376      15.50164881      15.47426900      15.44881381      15.42508279      15.39328900      15.35176557      15.31115883      15.28057363      15.25259495
        15.22637983      15.20775006      15.19585975      15.18700863      15.18031902      15.17383910      15.17060798      15.16985940      15.17430637      15.18443130      15.19608339      15.20344535      15.20485094      15.19824353      15.18611859      15.17373996      15.15966655      15.14371931      15.12635312      15.11566387
        15.11188599      15.11153808      15.11038313      15.10848874      15.10649468      15.10513444      15.10427724      15.10538732      15.11170086      15.11758198      15.12025506      15.12157428      15.12320560      15.12223828      15.11854873      15.11122336      15.10427232      15.09897750      15.09635312      15.09294097
        15.08844889      15.08288418      15.07689348      15.07004004      15.06660875      15.06929622      15.07622234      15.08669677      15.09468336      15.09959495      15.10482868      15.10834780      15.10963643      15.10966017      15.11148464      15.11359433      15.11376560      15.11254262      15.11325701      15.11653272
        15.12006034      15.12193983      15.12444810      15.12621651      15.12538340      15.11947064      15.10790990      15.09092134      15.07523260      15.06491597      15.06083209      15.06127424      15.06294884      15.06482483      15.07094704      15.08559098      15.10141124      15.10735897      15.10643081      15.10660466
        16.03752861      16.03745236      16.02888921      16.01394907      15.98032699      15.93556512      15.89044227      15.85434693      15.81213013      15.75647426      15.69729741      15.64176765      15.59549264      15.55752108      15.52621026      15.48669315      15.43688288      15.38979623      15.36031096      15.34096018
        15.32310461      15.30138583      15.28036688      15.26394449      15.25125273      15.23954158      15.22709415      15.21862285      15.21761749      15.22571201      15.23784811      15.24738415      15.25225639      15.25091874      15.24322011      15.23529988      15.22519398      15.21273394      15.19506181      15.17818474
        15.16954566      15.16481254      15.16147920      15.15955690      15.15837427      15.15684882      15.15710902      15.15838418      15.16119272      15.16574857      15.16902837      15.16993873      15.16985511      15.16661071      15.15915934      15.15020261      15.14206989      15.13534930      15.12939553      15.12555963
        15.12360593      15.12291791      15.12135710      15.11643770      15.11020031      15.11143373      15.11972270      15.12977413      15.13434107      15.13505681      15.13656392      15.13929391      15.14274123      15.14411474      15.14452587      15.14484025      15.14473857      15.14430114      15.14636376      15.15009954
        15.15295253      15.15390023      15.15556060      15.15762854      15.15786497      15.15507757      15.14822244      15.13640384      15.12029733      15.10641871      15.09667326      15.09430319      15.09523356      15.09915300      15.11059689      15.13166431      15.14995141      15.15714350      15.15770209      15.15875343
        16.35041888      16.35259411      16.35167110      16.33620903      16.29396977      16.24404259      16.18740993      16.11983996      16.03030968      15.93688704      15.84761570      15.76844268      15.70599770      15.65561872      15.61425752      15.56989385      15.51459057      15.45860222      15.41953870      15.39779160
        15.38125258      15.36552656      15.34819899      15.33113618      15.31347361      15.29668170      15.28020357      15.26742657      15.26053206      15.26192752      15.26868088      15.27716095      15.28489509      15.28995628      15.28845681      15.28080371      15.26941804      15.25767996      15.24670310      15.23768088
        15.23025774      15.22189915      15.21274253      15.20838452      15.20794620      15.20815779      15.20828867      15.20799431      15.20835868      15.21354514      15.21914800      15.22024624      15.21685812      15.21240336      15.20589285      15.19562549      15.18252632      15.17140496      15.16338896      15.15982656
        15.15865329      15.15859899      15.15772237      15.15598372      15.15330184      15.15457231      15.16084801      15.16861603      15.17248541      15.17127864      15.17105011      15.17362860      15.17681538      15.17790566      15.17656623      15.17543753      15.17603940      15.17708987      15.17743613      15.17802826
        15.17980700      15.18226710      15.18368841      15.18510532      15.18648497      15.18775619      15.18742444      15.18450045      15.17547860      15.15944936      15.14165840      15.13307133      15.13277680      15.13908478      15.15452380      15.17501930      15.19162547      15.19941860      15.20276725      15.20395565
        16.67320026      16.66392038      16.65220109      16.63725714      16.60915941      16.56077633      16.48069440      16.37829031      16.24935016      16.12726702      16.02031346      15.92245579      15.83601943      15.76663544      15.71344847      15.66761198      15.61110521      15.54520467      15.48718923      15.45134257
        15.43164068      15.42049103      15.41197195      15.39836573      15.37943112      15.35984427      15.34337986      15.32686781      15.31161260      15.30050547      15.30018264      15.30637396      15.31657780      15.32507054      15.32757074      15.32126290      15.30938443      15.29714855      15.29002186      15.28794864
        15.28633822      15.27896990      15.26781674      15.25912584      15.25835839      15.25875684      15.25787621      15.25697633      15.25773788      15.26225916      15.26616205      15.26626368      15.26428143      15.26060324      15.25536525      15.24494361      15.22951331      15.21394223      15.20215810      15.19595426
        15.19393033      15.19287730      15.19236099      15.19117635      15.19063404      15.19244566      15.19727787      15.20330994      15.20740212      15.20841043      15.20992387      15.21174996      15.21151394      15.20981237      15.20902882      15.20837359      15.20666567      15.20464863      15.20287370      15.20279997
        15.20519892      15.20850739      15.21092863      15.21260099      15.21517249      15.21820475      15.22134071      15.22298080      15.22017942      15.20931910      15.19222867      15.17959419      15.17773731      15.18282359      15.19846455      15.21805473      15.23152069      15.23773617      15.24080409      15.24078050
        16.97155092      16.95455829      16.93969048      16.92674879      16.90735411      16.86889844      16.78535762      16.66701649      16.52535014      16.37168097      16.23733980      16.12236865      16.01234512      15.91662920      15.84968942      15.79731323      15.73868872      15.66485036      15.59238913      15.53769620
        15.50540894      15.48938338      15.48122300      15.47120523      15.45764198      15.44064605      15.42343308      15.39995010      15.37298525      15.34987499      15.33955009      15.34212246      15.35057670      15.35974436      15.36618129      15.36597324      15.35876413      15.34672930      15.33665965      15.33378458
        15.33402386      15.33271519      15.32651212      15.31678321      15.30974960      15.30542108      15.30298940      15.30237606      15.30457501      15.30739311      15.31087841      15.31254844      15.31304688      15.31007484      15.30464399      15.29391555      15.27719958      15.25720204      15.24091540      15.23209765
        15.22845717      15.22675556      15.22717911      15.22927456      15.23090230      15.23179132      15.23313307      15.23650185      15.24057946      15.24434805      15.24577792      15.24589208      15.24348681      15.24164904      15.23998304      15.23792565      15.23513015      15.23188018      15.22874457      15.22760676
        15.22878276      15.23177860      15.23479144      15.23751422      15.24131236      15.24650090      15.25222378      15.25494771      15.25398558      15.24979284      15.24037586      15.22965978      15.22477359      15.22852580      15.24273906      15.25997086      15.26979632      15.27367593      15.27636048      15.27792328
        17.26734647      17.24436045      17.22035074      17.20491922      17.18189422      17.15246968      17.08692842      16.97869590      16.83927374      16.67645152      16.50867429      16.37764208      16.26295499      16.14720600      16.04379396      15.95849284      15.88009177      15.80000682      15.72392760      15.66403978
        15.61149926      15.57602939      15.56027226      15.55389559      15.54846127      15.53646942      15.51380339      15.48336101      15.44753280      15.41606838      15.39390835      15.38676196      15.38890404      15.39667214      15.40745497      15.41710037      15.41848388      15.41073238      15.39631850      15.38686782
        15.38391583      15.38309891      15.37851547      15.36622345      15.35343086      15.34590468      15.34474304      15.34605721      15.34853113      15.35255152      15.35643339      15.35750100      15.35700924      15.35416891      15.34840444      15.33707013      15.31925150      15.29917127      15.28109618      15.26881571
        15.26111005      15.25901616      15.26174706      15.26741936      15.26960357      15.26899988      15.26788672      15.27047713      15.27480961      15.27873240      15.28030132      15.28165815      15.28015144      15.27581025      15.26978303      15.26521915      15.26268801      15.26013899      15.25603721      15.25355153
        15.25334446      15.25489782      15.25746510      15.26169522      15.26773845      15.27395049      15.27738365      15.27905215      15.27985016      15.28137310      15.27939047      15.27339646      15.26879115      15.27321961      15.28625291      15.29665782      15.30150673      15.30462980      15.30718176      15.30888105
        17.57268580      17.55088138      17.51359616      17.48471355      17.45424297      17.42075093      17.37031920      17.27325125      17.14035080      16.98183879      16.81549518      16.67979517      16.56853151      16.43278480      16.28087691      16.14338910      16.03338585      15.93576768      15.84812066      15.77993350
        15.72751700      15.68433261      15.65821407      15.65068545      15.64751963      15.63846333      15.61591759      15.58298907      15.54134337      15.49756790      15.46162656      15.44257109      15.43719574      15.44282883      15.45568289      15.46872465      15.47576710      15.47445581      15.46387168      15.45033461
        15.43921863      15.43076770      15.42274953      15.40989056      15.39703738      15.38914530      15.38750690      15.38878753      15.39206315      15.39478488      15.39714966      15.39782870      15.39724605      15.39498923      15.38882672      15.37767775      15.36018136      15.33851354      15.31686805      15.30014484
        15.29189613      15.29078095      15.29527333      15.30076637      15.30462518      15.30818442      15.31086975      15.31147352      15.31245117      15.31454885      15.31653863      15.31767177      15.31415050      15.30619601      15.29942515      15.29420371      15.29072827      15.28872200      15.28666342      15.28475747
        15.28203755      15.28028308      15.28168844      15.28641223      15.29243835      15.29726438      15.29971079      15.30201614      15.30522820      15.30844960      15.30971958      15.30865188      15.30823353      15.31330220      15.32093812      15.32478152      15.32718411      15.32990353      15.33224171      15.33297820
        17.86496274      17.84342448      17.81198557      17.77905450      17.74212138      17.69547311      17.64952255      17.56967264      17.44936769      17.29241994      17.12441088      16.99413565      16.86989970      16.70629214      16.52249334      16.35076882      16.20299311      16.07793446      15.96710673      15.88230260
        15.83707183      15.80410425      15.77684361      15.75833697      15.75140838      15.74343745      15.72982887      15.70424930      15.65968569      15.59519679      15.53949090      15.50749151      15.49650608      15.49796407      15.50661013      15.51511890      15.52244813      15.52772472      15.52668516      15.51559126
        15.49720472      15.47816975      15.46515014      15.45482465      15.44471360      15.43622326      15.43248987      15.43326820      15.43600186      15.43836144      15.44068893      15.44137884      15.43974499      15.43624370      15.43155134      15.42135793      15.40184074      15.37316203      15.34602423      15.32678336
        15.32249276      15.32467014      15.32891738      15.33404785      15.34148334      15.34805677      15.35183447      15.35158124      15.35145221      15.35177401      15.35134560      15.35073242      15.34919776      15.34434284      15.33658504      15.32789819      15.32157865      15.31876748      15.31590681      15.31193826
        15.30825060      15.30656063      15.30843860      15.31215953      15.31664145      15.32185183      15.32633828      15.32883771      15.33036616      15.33211014      15.33375786      15.33552061      15.33809262      15.34266107      15.34732982      15.34965084      15.35045909      15.35119410      15.35319803      15.35423252
        18.16152505      18.14327335      18.10726727      18.07130066      18.02986764      17.98073709      17.91935592      17.83743204      17.72723793      17.58955016      17.42139069      17.28080867      17.15044713      16.97299161      16.76675120      16.56993953      16.38125973      16.21645973      16.07044216      15.95523465
        15.93161275      15.91897100      15.89998608      15.87713198      15.86174164      15.85377176      15.84611926      15.82667061      15.78386027      15.71163906      15.63576555      15.58600261      15.56177281      15.55539063      15.55459630      15.55797033      15.56482548      15.57515088      15.57954915      15.57321467
        15.55394268      15.53090696      15.51416421      15.50508523      15.49693786      15.48794501      15.48281580      15.48320457      15.48522570      15.48764862      15.48750110      15.48602518      15.48489593      15.48279779      15.47837949      15.46743088      15.44577372      15.41225904      15.37450496      15.34305772
        15.35035424      15.36200120      15.36893373      15.37394605      15.37915389      15.38462101      15.38895867      15.39117459      15.39109311      15.39096269      15.38941320      15.38774448      15.38563368      15.38065701      15.37243288      15.36294650      15.35489480      15.34889677      15.34309037      15.33924942
        15.33783947      15.33643793      15.33633922      15.33783469      15.34146990      15.34624480      15.35005550      15.35186592      15.35317418      15.35436096      15.35514012      15.35707820      15.36020539      15.36409725      15.36713443      15.36861908      15.36863699      15.36943470      15.37094475      15.37214831
        18.47530079      18.45406503      18.40680531      18.36438272      18.31467130      18.24982107      18.17041498      18.07823504      17.96881094      17.83689340      17.67378927      17.52100741      17.38411421      17.21324867      17.00069043      16.78657873      16.57879197      16.37712044      16.18114508      16.01322963
        16.03225161      16.04115914      16.02869589      16.00310173      15.97896253      15.96518861      15.95627188      15.93895808      15.89903122      15.83589198      15.75649885      15.68506723      15.63774886      15.61684564      15.60826612      15.60774623      15.61285692      15.62121887      15.62551183      15.62167651
        15.60751627      15.58787449      15.57123215      15.56067553      15.55108984      15.54107224      15.53430698      15.53356604      15.53581790      15.53597879      15.53402481      15.53321328      15.53402371      15.53324939      15.52724943      15.51491589      15.49367393      15.45787772      15.40140539      15.33202152
        15.37336412      15.40327444      15.41652949      15.42097793      15.42257767      15.42564040      15.42860518      15.42921606      15.42863093      15.42950071      15.42983550      15.42761965      15.42331542      15.41728925      15.41022903      15.40044125      15.38865272      15.37805167      15.37061181      15.36630711
        15.36497386      15.36326293      15.36301986      15.36452904      15.36617612      15.36778788      15.36989965      15.37229203      15.37413786      15.37477447      15.37464966      15.37546705      15.37666450      15.37850147      15.38066503      15.38261388      15.38354388      15.38418266      15.38462457      15.38531682
        18.80371613      18.76967729      18.71093675      18.65801394      18.60252534      18.52012417      18.41990563      18.31445506      18.19820456      18.05620350      17.89160200      17.73620697      17.59254844      17.41601786      17.21055063      16.99424621      16.78259972      16.57850822      16.38277318      16.22599687
        16.18696364      16.16698627      16.15248375      16.13140988      16.10386367      16.07829918      16.05888981      16.03988775      16.00924260      15.95904862      15.88909396      15.80877681      15.73999722      15.69890196      15.68144908      15.67341797      15.66993095      15.66851897      15.66903474      15.66582082
        15.65629718      15.64045755      15.62468975      15.61319457      15.60511294      15.59616254      15.58948754      15.58694911      15.58526368      15.58423548      15.58293692      15.58236124      15.57989682      15.57503743      15.56861611      15.55944465      15.54333139      15.51411224      15.47182521      15.43021333
        15.44300595      15.45704489      15.46467477      15.46820492      15.46978067      15.46871843      15.46796135      15.46750479      15.46960457      15.47163423      15.47082738      15.46661133      15.46409293      15.46047058      15.45315589      15.44036685      15.42487255      15.41145038      15.40334611      15.39559024
        15.39108001      15.38932355      15.38887747      15.38750246      15.38570330      15.38563893      15.38786781      15.39005056      15.39114625      15.39186333      15.39216425      15.39181741      15.39097114      15.39131889      15.39379575      15.39623730      15.39741751      15.39717086      15.39687862      15.39717292
        19.13699630      19.10011794      19.02657602      18.94504649      18.87270633      18.79038300      18.68178417      18.55996800      18.43172484      18.28200537      18.10852183      17.95365994      17.80362571      17.61863180      17.40212645      17.18838785      16.97703459      16.77576482      16.59498412      16.44288422
        16.34888163      16.29141391      16.26143897      16.24241885      16.21548620      16.18011813      16.14890082      16.12597312      16.10319403      16.06629291      16.01161215      15.94044004      15.86967488      15.81477268      15.77929587      15.75399466      15.73463228      15.72094906      15.71542560      15.71122379
        15.70192257      15.68563310      15.66855430      15.65809541      15.65395303      15.65052560      15.64444538      15.63750048      15.63188632      15.62987073      15.62939441      15.62749224      15.62162031      15.61396079      15.60656744      15.60055614      15.59059436      15.57078948      15.54143918      15.51413280
        15.50816057      15.50912132      15.51162594      15.51441316      15.51720288      15.51728524      15.51584279      15.51380457      15.51211633      15.51096704      15.50952418      15.50705935      15.50659675      15.50728803      15.50358482      15.49281343      15.47460722      15.45390134      15.43732936      15.42535238
        15.41738895      15.41144772      15.40662570      15.40462343      15.40412362      15.40452356      15.40541617      15.40691662      15.40879969      15.40953249      15.40843244      15.40728973      15.40673015      15.40722935      15.40831723      15.40971936      15.41065198      15.41065465      15.41036596      15.41024012
        19.42035838      19.38595810      19.31273457      19.22812258      19.14655793      19.06080939      18.95223593      18.82539931      18.68115943      18.52000280      18.33861445      18.17287331      18.00988271      17.82263830      17.59710949      17.37213546      17.16146197      16.96220744      16.78206448      16.62382044
        16.50954925      16.42284417      16.36312074      16.32800637      16.29670359      16.25735341      16.21731260      16.18467822      16.15879719      16.12920383      16.09080570      16.03914737      15.98301162      15.93323761      15.88728069      15.84458632      15.80910351      15.78268366      15.76721924      15.75837149
        15.74597079      15.72731992      15.70725784      15.69523427      15.69136468      15.69083447      15.68784113      15.68112102      15.67439150      15.67099291      15.66922190      15.66695009      15.66198906      15.65527117      15.64838564      15.64165875      15.63377829      15.62137103      15.60285008      15.58259267
        15.56953207      15.56390449      15.56044174      15.55957975      15.56206782      15.56463198      15.56339906      15.55799510      15.55189953      15.54957977      15.54933209      15.54812858      15.54501332      15.54293459      15.53948648      15.53296326      15.51997679      15.49963742      15.47541197      15.45340108
        15.44000532      15.43113877      15.42602770      15.42464194      15.42354856      15.42169159      15.42135337      15.42265257      15.42349161      15.42309470      15.42254898      15.42426622      15.42692771      15.42794429      15.42714669      15.42629696      15.42612547      15.42558101      15.42451564      15.42345819
        19.65910527      19.62735571      19.56048016      19.47961622      19.40001118      19.31180042      19.20289483      19.07551065      18.93461246      18.77232532      18.58312155      18.39328996      18.21217977      18.01769637      17.79698871      17.56090357      17.33181723      17.12335988      16.94124536      16.77606043
        16.64926581      16.54939309      16.46414315      16.40640581      16.36256453      16.31594596      16.26408686      16.22006111      16.18863603      16.16024976      16.12790485      16.08987614      16.04953339      16.01214244      15.97331161      15.93017024      15.88664792      15.84900656      15.82172742      15.80382494
        15.78852694      15.76818508      15.74589626      15.72830061      15.72088479      15.72005812      15.72149194      15.71964999      15.71346199      15.70666698      15.70342519      15.70130181      15.70016437      15.69848453      15.69510557      15.68871097      15.67977819      15.67036441      15.65939706      15.64566507
        15.62998351      15.61622618      15.60620859      15.60259774      15.60435785      15.60693303      15.60724007      15.60419963      15.59797689      15.59221766      15.58818380      15.58274431      15.57541755      15.56878321      15.56402924      15.55845399      15.54886509      15.53267444      15.50939650      15.48308103
        15.46534303      15.45538622      15.44812140      15.44223622      15.43795993      15.43588544      15.43553206      15.43618206      15.43694930      15.43869506      15.44133363      15.44433384      15.44613321      15.44707263      15.44684339      15.44520957      15.44231434      15.43987971      15.43819933      15.43686904
        19.85168574      19.83399157      19.78672821      19.70908589      19.62628284      19.53220979      19.42299479      19.29309249      19.16281666      19.00942405      18.82138227      18.61543614      18.40745900      18.19448706      17.96984234      17.74013364      17.50540818      17.27753017      17.08251247      16.90933597
        16.76970208      16.65986165      16.56550256      16.49145598      16.42993094      16.36719074      16.30073745      16.24700785      16.21087631      16.18020895      16.14873958      16.11508191      16.08302729      16.05426454      16.02576254      15.99410597      15.95610471      15.91406662      15.87775554      15.85105720
        15.83204083      15.81089789      15.78640472      15.76448861      15.75298329      15.75159017      15.75532940      15.75704646      15.75271751      15.74469893      15.73976249      15.73825825      15.73938480      15.74209338      15.74204303      15.73709614      15.72930180      15.72115999      15.71319354      15.70244667
        15.68770480      15.67260259      15.65980274      15.64958369      15.64432212      15.64316596      15.64555562      15.64641528      15.64201346      15.63251905      15.62329406      15.61360991      15.60325900      15.59384205      15.58649550      15.57996400      15.57153555      15.55784507      15.53723635      15.51145544
        15.49051836      15.47646136      15.46570691      15.45900133      15.45567802      15.45422633      15.45258016      15.45257923      15.45448054      15.45700642      15.45826891      15.45903809      15.46045167      15.46249351      15.46293060      15.46099012      15.45751717      15.45409975      15.45182308      15.45069349
        20.02229698      20.01448565      19.98547184      19.92428533      19.84231402      19.73663084      19.61723635      19.48682053      19.35706681      19.21346029      19.03307606      18.81784589      18.58971958      18.36088636      18.12133256      17.88581614      17.65373615      17.42487796      17.21009964      17.01921897
        16.86245991      16.74715412      16.65133460      16.57524200      16.50605814      16.43243563      16.35043649      16.28105721      16.23632312      16.20089186      16.16727802      16.13436441      16.10526787      16.08041623      16.05778964      16.03502750      16.00838720      15.97461897      15.93731273      15.90570621