# File generated by Flopy version 3.5.0 on 02/26/2024 at 10:21:56.
BEGIN griddata
  strt
    INTERNAL  FACTOR  1.0
        15.00000000      15.00000000      15.00000000      15.00000000      15.00000000      15.00000000      15.00000000      15.00000000      15.00000000      15.00000000      15.00000000      15.00000000      15.00000000      15.00000000      15.00000000      15.00000000      15.00000000      15.00000000      15.00000000      15.00000000
        15.00000000      15.00000000      15.00000000      15.00000000      15.00000000      15.00000000      15.00000000      15.00000000      15.00000000      15.00000000      15.00000000      15.00000000      15.00000000      15.00000000      15.00000000      15.00000000      15.00000000      15.00000000      15.00000000      15.00000000
        15.00000000      15.00000000      15.00000000      15.00000000      15.00000000      15.00000000      15.00000000      15.00000000      15.00000000      15.00000000      15.00000000      15.00000000      15.00000000      15.00000000      15.00000000      15.00000000      15.00000000      15.00000000      15.00000000      15.00000000
        15.00000000      15.00000000      15.00000000      15.00000000      15.00000000      15.00000000      15.00000000      15.00000000      15.00000000      15.00000000      15.00000000      15.00000000      15.00000000      15.00000000      15.00000000      15.00000000      15.00000000      15.00000000      15.00000000      15.00000000
        15.00000000      15.00000000      15.00000000      15.00000000      15.00000000      15.00000000      15.00000000      15.00000000      15.00000000      15.00000000      15.00000000      15.00000000      15.00000000      15.00000000      15.00000000      15.00000000      15.00000000      15.00000000      15.00000000      15.00000000
        15.08617502      15.07307116      15.07994042      15.08548277      15.09873008      15.09526327      15.05046189      15.03645530      15.04311130      15.04389024      15.03869480      15.02085741      15.01264168      15.01150753      15.01502514      15.01872163      15.02309050      15.02832800      15.03784395      15.04586186
        15.04593712      15.03102016      15.02719059      15.02796288      15.02441511      15.02945121      15.03397280      15.03581553      15.02581389      15.02580308      15.02566679      15.02657625      15.03266237      15.03532217      15.03620258      15.04161597      15.05182714      15.05232241      15.04858821      15.05408848
        15.05682220      15.05267620      15.04144238      15.03001018      15.02657136      15.02470167      15.01831025      15.00967474      15.00497028      15.00659807      15.00898058      15.01200613      15.01328941      15.01480556      15.02104874      15.02873604      15.02912749      15.02797465      15.04389596      15.06669771
        15.08244362      15.09553862      15.08249691      15.07688032      15.08746102      15.08383679      15.06743610      15.07365259      15.07568618      15.06993020      15.06459943      15.08455510      15.10119680      15.11823314      15.12504990      15.11944110      15.13930698      15.15309087      15.15186669      15.13758040
        15.16420557      15.15845685      15.10775461      15.09422550      15.10533587      15.12843419      15.17649924      15.18173783      15.13639295      15.09878907      15.06077556      15.03843057      15.02783335      15.03194663      15.04068370      15.04400289      15.03805717      15.02695585      15.02746947      15.01989399
        15.18244582      15.15455222      15.15410479      15.16391864      15.18028751      15.18546487      15.13496189      15.07897686      15.08251743      15.08416498      15.08338502      15.06442966      15.03496335      15.02959154      15.03081573      15.03622243      15.04303476      15.05032009      15.06174341      15.06719889
        15.07400454      15.06632784      15.05350547      15.05457741      15.05490812      15.05880328      15.06592877      15.06877279      15.06002185      15.05431212      15.05339052      15.05081274      15.05401678      15.06059452      15.06205980      15.06684620      15.07730736      15.07952238      15.08166345      15.08608246
        15.09285075      15.09142653      15.08078595      15.06132567      15.05308247      15.04757507      15.04039359      15.02763638      15.01655843      15.01635609      15.01930550      15.02397130      15.02607968      15.03025842      15.03625106      15.04780036      15.06039833      15.07328029      15.09398348      15.11549592
        15.13942128      15.16309896      15.15528232      15.13713003      15.15070863      15.15045470      15.13469331      15.13511657      15.14218452      15.13683718      15.12749474      15.16145278      15.18270734      15.19968644      15.20327865      15.22367720      15.24579356      15.26780187      15.27801426      15.26063777
        15.26481443      15.28917969      15.25099617      15.21425225      15.23043577      15.24729929      15.29887853      15.32778429      15.28513083      15.21067629      15.12492563      15.08206664      15.06424430      15.06925420      15.07765248      15.08731622      15.08459736      15.06984443      15.06598578      15.06264808
        15.26714256      15.24286616      15.22284185      15.23169121      15.24486016      15.24299385      15.21005630      15.13236055      15.11534104      15.11837711      15.11953355      15.11502425      15.08062414      15.05608345      15.05295462      15.05919601      15.06350822      15.06950962      15.07705512      15.08178883
        15.08878436      15.08968264      15.07721276      15.07683006      15.08252277      15.08571940      15.09394451      15.09649855      15.09445825      15.08489146      15.08068269      15.07442251      15.07308972      15.07859656      15.08053973      15.08319383      15.08842230      15.09333490      15.09773477      15.10358278
        15.10932684      15.11068873      15.10931841      15.09472995      15.07779892      15.07276870      15.06795332      15.05451200      15.03815377      15.03069110      15.03364934      15.03652035      15.04154803      15.04525797      15.05214373      15.06507913      15.08460501      15.11364782      15.13677511      15.15877614
        15.18584205      15.21228236      15.21817501      15.20041445      15.20599447      15.20693737      15.19540653      15.19384483      15.20525379      15.20696782      15.19575813      15.21953518      15.24688024      15.26203311      15.27692123      15.30405761      15.31985998      15.35037924      15.36985356      15.37769645
        15.36292842      15.38750405      15.39174281      15.35577477      15.35806737      15.37022635      15.39364899      15.44379307      15.44224788      15.33975773      15.20627002      15.14249483      15.11658560      15.11624101      15.12388202      15.13105087      15.13593556      15.12869158      15.11666352      15.12179032
        15.31998094      15.31075736      15.28894593      15.28738768      15.29497217      15.29171976      15.26906740      15.19347208      15.14570634      15.14480188      15.14709147      15.14692167      15.13110695      15.10028730      15.08515809      15.08498770      15.08612493      15.08829059      15.08964338      15.09448670
        15.09958923      15.10529361      15.10026215      15.09872118      15.10434205      15.10909965      15.11518580      15.11934818      15.12003418      15.11259078      15.10527322      15.09873209      15.09146697      15.09232524      15.09514663      15.09588382      15.09700884      15.10202271      15.10674984      15.11252380
        15.11706889      15.12013336      15.12333530      15.12321051      15.10608406      15.09943574      15.09800244      15.08570349      15.07018293      15.05781003      15.05625625      15.05310684      15.05746421      15.06265183      15.07100005      15.08408712      15.11003956      15.14174573      15.16867499      15.19595744
        15.22380275      15.24540936      15.26195804      15.25979942      15.25250029      15.25830960      15.25884029      15.25920794      15.28304342      15.29021638      15.27277266      15.27168385      15.29824496      15.31741931      15.34006610      15.35858052      15.37831706      15.41359125      15.44731493      15.47253725
        15.46904679      15.47669631      15.50641274      15.49493859      15.48125415      15.50699088      15.50879194      15.53971242      15.56809366      15.47038162      15.30536590      15.22200859      15.19046555      15.18184892      15.18334748      15.18671577      15.20264192      15.20563540      15.18607294      15.19127714
        15.34593372      15.34694465      15.33828587      15.32814359      15.32998670      15.33009214      15.31509043      15.25334469      15.18794551      15.17073252      15.16803663      15.16843501      15.16650428      15.14782455      15.12232200      15.10767484      15.10952685      15.10862648      15.10492101      15.10761574
        15.11132387      15.11906179      15.12038523      15.11960776      15.12271052      15.12759677      15.13083156      15.13480605      15.13610851      15.13346987      15.12761334      15.12355979      15.11010357      15.10478686      15.10710108      15.10833870      15.10766499      15.10974897      15.11397092      15.11901491
        15.12276401      15.12712983      15.13165090      15.14014853      15.13886576      15.12724650      15.12487014      15.11797696      15.10722974      15.09605367      15.08932222      15.07675764      15.07433825      15.08432021      15.09307911      15.10867997      15.13650354      15.16503529      15.19113589      15.22087402
        15.24934701      15.26975208      15.28860576      15.30283636      15.29848498      15.30226819      15.32287751      15.34820817      15.37913493      15.39250198      15.37703862      15.33166845      15.34586137      15.36798752      15.38967519      15.40566959      15.43061464      15.47055154      15.50838484      15.53418402
        15.55480165      15.56909525      15.59903685      15.61652124      15.61634147      15.63852289      15.63337900      15.63603051      15.67599747      15.61666627      15.44010480      15.31502329      15.27983370      15.26546884      15.26433753      15.26720113      15.28042641      15.28626483      15.26921251      15.26791846
        15.36196449      15.36438597      15.36696058      15.35756217      15.35417489      15.35908417      15.35225209      15.31435662      15.24848440      15.20624502      15.19115490      15.18693733      15.19207423      15.18377526      15.15978275      15.13596370      15.13224964      15.13084462      15.12462735      15.12391921
        15.12817577      15.13314016      15.13840243      15.13901405      15.14140776      15.14509635      15.14415121      15.14760427      15.14874760      15.14936011      15.14840769      15.14620597      15.13169766      15.11726395      15.11827812      15.12071640      15.12013297      15.11893612      15.12189932      15.12659566
        15.12985228      15.13462755      15.14098298      15.15300539      15.17328677      15.16286678      15.14677525      15.14748537      15.14117034      15.13307649      15.12650458      15.11294257      15.10094038      15.10957943      15.11962021      15.13618800      15.16278130      15.18488995      15.20620226      15.23217707
        15.26018236      15.28746940      15.31239225      15.33512190      15.34063921      15.34759509      15.39025819      15.44462261      15.46659401      15.49063104      15.50111518      15.43309689      15.39945048      15.41842293      15.43740208      15.45892261      15.48481430      15.51967500      15.55579898      15.58257360
        15.61521264      15.64638449      15.67039857      15.70067721      15.72881501      15.74907299      15.74794723      15.74539600      15.76822687      15.74578562      15.58963768      15.42196107      15.36215452      15.35407940      15.35496494      15.35542052      15.35252401      15.34871851      15.35027464      15.34649935
        15.37600952      15.37864398      15.38464283      15.38174766      15.37597972      15.38227018      15.38049482      15.35925081      15.31136498      15.26130717      15.22344520      15.20965813      15.21325645      15.21178495      15.19445851      15.16998998      15.15636172      15.15169506      15.14761115      15.14393421
        15.14829404      15.14908236      15.15463847      15.15841366      15.16221958      15.16557239      15.16246525      15.16091975      15.16215003      15.16395168      15.16664829      15.16649316      15.15492331      15.13542958      15.12907408      15.13139605      15.13207351      15.13050447      15.13233594      15.13622379
        15.14046984      15.14619418      15.15582240      15.17191874      15.20547423      15.20320469      15.17719244      15.17241220      15.16851077      15.16090917      15.15517743      15.15296901      15.13764360      15.13568450      15.14853593      15.16560682      15.18579214      15.19792282      15.21035613      15.22868412
        15.25742160      15.29847626      15.33742080      15.36399850      15.37708963      15.39232265      15.45792604      15.52511000      15.54895470      15.58085023      15.60932294      15.56405130      15.47455233      15.47868455      15.49376423      15.51805135      15.54294795      15.57004522      15.60347620      15.63215516
        15.66517925      15.70250444      15.72493669      15.75840180      15.80573499      15.83449456      15.85013486      15.84693528      15.84808675      15.82323075      15.68620447      15.51774700      15.42762377      15.42675330      15.42970116      15.43089299      15.41870847      15.40654479      15.41728991      15.41898102
        15.39206445      15.39766312      15.40042458      15.40219002      15.39796242      15.39867598      15.40213816      15.38997263      15.35866565      15.32011629      15.27242008      15.23599032      15.23047654      15.23576491      15.22878503      15.21032002      15.18437552      15.17251072      15.16708136      15.16425586
        15.16716738      15.16730166      15.17019141      15.17677756      15.18228571      15.18576751      15.18627141      15.17948441      15.17923531      15.18175411      15.18503971      15.18782418      15.18001909      15.15562154      15.13952873      15.13975247      15.14144852      15.14366948      15.14503782      15.14882498
        15.15706493      15.16650509      15.17856978      15.19836726      15.23313561      15.24304981      15.21944669      15.20006028      15.19486188      15.18516743      15.18028778      15.18420998      15.17671547      15.16471565      15.17786134      15.19271299      15.20166609      15.20409751      15.20630617      15.21570775
        15.24520921      15.30217620      15.35784011      15.38824129      15.40792592      15.44185153      15.52113667      15.59539998      15.63471971      15.65992552      15.68118669      15.67731731      15.59537906      15.54678615      15.56046441      15.57711384      15.60363682      15.63273528      15.65765777      15.68611908
        15.71394839      15.74416155      15.76809226      15.80519493      15.85822938      15.90139325      15.92068526      15.92226216      15.90625756      15.88249799      15.75568584      15.58838664      15.49334950      15.47712739      15.48423633      15.49160193      15.48299061      15.46657192      15.46395708      15.47294880
        15.41542269      15.42130683      15.42019484      15.42072434      15.41766395      15.41468426      15.41809286      15.41168925      15.39374242      15.36867619      15.33345191      15.28042201      15.25196837      15.25602528      15.25608992      15.24650138      15.21946825      15.19537687      15.18262943      15.17824967
        15.18097148      15.18341379      15.18578781      15.19300936      15.19866427      15.20481988      15.21032773      15.20692400      15.20342786      15.20422991      15.20728515      15.20890739      15.20638890      15.18096797      15.15196592      15.14865858      15.15116864      15.15657275      15.15954471      15.16583512
        15.18115908      15.19486598      15.20744434      15.23334794      15.26593883      15.28107060      15.26496996      15.24246041      15.22829351      15.21285873      15.20364672      15.20523804      15.20793061      15.19909778      15.20654137      15.21918411      15.21700467      15.20661300      15.19741347      15.19594131
        15.22151084      15.29424233      15.37569104      15.41775058      15.44435911      15.49012571      15.58421464      15.67485878      15.72456528      15.73074462      15.73322918      15.74074700      15.70351965      15.63328346      15.63221891      15.63929943      15.66947024      15.70059831      15.72210276      15.74580465
        15.76774808      15.78396269      15.81217826      15.85178114      15.90637555      15.95652873      15.98433983      15.98483300      15.95915869      15.93732800      15.83735458      15.66552716      15.55294707      15.52619321      15.53143488      15.54343860      15.54545627      15.52581385      15.50570254      15.51202510
        15.44002390      15.44263749      15.44266556      15.43964777      15.43354502      15.42894479      15.43110390      15.43106220      15.42404711      15.40837741      15.38554348      15.33835397      15.28118107      15.27172977      15.27615166      15.27153861      15.25272806      15.21846208      15.19307367      15.18345122
        15.18923056      15.19445118      15.20038150      15.20681567      15.21379689      15.22086188      15.22887867      15.23244604      15.23066303      15.22932600      15.23023952      15.23144864      15.22842604      15.21163769      15.17605803      15.16024961      15.16349763      15.16769100      15.17295614      15.18826630
        15.20834205      15.22697266      15.24083183      15.26958931      15.30018575      15.31581960      15.30899807      15.29035878      15.27145769      15.24928022      15.22870199      15.22591866      15.22854913      15.23181407      15.23542683      15.24535536      15.23637955      15.20958719      15.18438005      15.16857499
        15.19638588      15.28794601      15.39949604      15.45968352      15.49616035      15.55209536      15.66243492      15.76691735      15.82199095      15.81952159      15.79942803      15.79912952      15.79654583      15.73589162      15.70480259      15.71291222      15.73596434      15.76701114      15.79364765      15.81551723
        15.83627017      15.84802140      15.87399008      15.91115317      15.96724837      16.02147629      16.06306025      16.06257045      16.01800850      15.98288716      15.90573380      15.74633630      15.62660818      15.58251493      15.58197403      15.59180743      15.60241763      15.59630543      15.55965709      15.54959542
        15.45826791      15.45845381      15.46183113      15.45926642      15.45127969      15.44344433      15.44427305      15.44638236      15.44385555      15.43565344      15.41944424      15.38780752      15.32866222      15.29089949      15.29365697      15.29001704      15.27855623      15.24353069      15.20144039      15.17511156
        15.19532947      15.20325074      15.21250766      15.22057316      15.22863660      15.23511169      15.24190175      15.24766459      15.25246058      15.25174976      15.25145764      15.25113398      15.24895345      15.23921397      15.20634963      15.17792039      15.17726687      15.18035817      15.18812983      15.21143460
        15.23745315      15.25998977      15.27974130      15.31023924      15.33501424      15.34597835      15.34331110      15.33168195      15.31517515      15.29702747      15.26869150      15.25057503      15.25139245      15.26145318      15.26449753      15.27053364      15.26384920      15.22296011      15.17074492      15.11846395
        15.18993701      15.30235146      15.43188418      15.51675430      15.56477096      15.63975630      15.75253413      15.87581382      15.93310782      15.94196097      15.91419464      15.87564223      15.87855268      15.84253341      15.78890134      15.79611321      15.80383604      15.82942486      15.86865903      15.89326053
        15.91908897      15.93690167      15.95558795      15.98964686      16.04227022      16.10018372      16.14136595      16.15250721      16.10233568      16.03200543      15.98182701      15.84468037      15.70774291      15.64941610      15.63547019      15.64190266      15.65573233      15.68004539      15.65262936      15.60434621
        15.47532799      15.47235071      15.47636238      15.47881536      15.47263644      15.45926070      15.45436072      15.45594025      15.45440290      15.45078898      15.44038351      15.41742153      15.38008618      15.32765545      15.31181023      15.30851438      15.29915622      15.27392835      15.22881629      15.20303244
        15.20870626      15.21334341      15.22136565      15.23177192      15.24134146      15.24723898      15.25145084      15.25823946      15.26779799      15.27126546      15.26921482      15.26831620      15.26893905      15.26301704      15.23839635      15.20290337      15.19547667      15.19880405      15.21037932      15.23796000
        15.27132177      15.29631448      15.32189913      15.34957599      15.36758314      15.37471189      15.37450484      15.36638980      15.35525159      15.34785736      15.32593175      15.29424074      15.28155125      15.28896568      15.29400610      15.29850941      15.30335005      15.26972239      15.21599601      15.19830686
        15.25765690      15.36544794      15.48444274      15.59594677      15.66591044      15.74462605      15.86317844      15.99547577      16.05598465      16.07622416      16.06011301      16.00219332      15.96637716      15.95264437      15.90113385      15.88535877      15.88846947      15.90021655      15.94964268      15.98177205
        16.00304364      16.02958028      16.05034897      16.08307930      16.12519438      16.17532455      16.21004436      16.22293523      16.19028518      16.10746157      16.04804781      15.95872316      15.80543123      15.72320095      15.69652738      15.69664640      15.71790128      15.75328889      15.76222954      15.72046850
        15.49267008      15.48559514      15.48525976      15.48881018      15.49062031      15.47347095      15.46224047      15.46121332      15.46018766      15.45883509      15.45464876      15.44178137      15.42268090      15.38075343      15.33615280      15.32704562      15.31432762      15.29865641      15.26073191      15.22529774
        15.22191776      15.22387900      15.22913134      15.24069686      15.25288856      15.25839840      15.26279002      15.26997148      15.28135665      15.28818150      15.28617737      15.28607362      15.28805722      15.28223122      15.26762171      15.23694352      15.21950682      15.22574089      15.24030413      15.27080756
        15.30905409      15.33727897      15.36291641      15.38522296      15.39778770      15.40174526      15.40556608      15.39960672      15.39033351      15.39179825      15.38341492      15.35518519      15.32677381      15.32015810      15.33063726      15.33556654      15.35001447      15.34382365      15.30188016      15.30131934
        15.36517638      15.45932729      15.57105335      15.70509062      15.78839900      15.85418908      15.97602979      16.09493773      16.15876200      16.17631818      16.17664523      16.14727784      16.09636380      16.06558425      16.02567008      15.98171416      15.98766087      15.99726936      16.04753890      16.07471343
        16.08824279      16.11762156      16.14697396      16.17653796      16.19744483      16.23083552      16.25537352      16.26251380      16.24867921      16.18625504      16.11227763      16.05947938      15.93172861      15.81138513      15.77193087      15.76156067      15.78221755      15.81212049      15.83516817      15.83529983
        15.50385742      15.49558552      15.49155241      15.49315574      15.49659541      15.48734329      15.46830596      15.46455127      15.46360804      15.46310312      15.46238694      15.45842548      15.44811262      15.42618947      15.37479457      15.34634184      15.32555867      15.30843458      15.28149037      15.24520353
        15.23433205      15.23490307      15.23874227      15.24985216      15.26274785      15.27178069      15.27676295      15.28546511      15.29656238      15.30379403      15.30478666      15.30417841      15.30546546      15.30179212      15.29262543      15.27394348      15.25152636      15.25596206      15.27599594      15.30782939
        15.34697572      15.37775410      15.39929899      15.41347939      15.42112663      15.42714494      15.42968542      15.42881295      15.42230694      15.42179686      15.42442460      15.41244206      15.38768109      15.36990167      15.37395559      15.38149811      15.39393939      15.41438663      15.41637573      15.42770767
        15.50072592      15.57782657      15.69591385      15.83352117      15.92148237      15.98280073      16.07930557      16.17000419      16.21999864      16.23500327      16.24589022      16.24637794      16.22499121      16.18124023      16.14262346      16.09270400      16.09597675      16.11694599      16.16648913      16.18807893
        16.19163755      16.20411208      16.22964606      16.24519095      16.25547937      16.26879908      16.27662433      16.27947736      16.27551554      16.23981366      16.17383022      16.12506740      16.04081806      15.92631788      15.86771141      15.83712820      15.84433987      15.85999495      15.88479183      15.90592571
        15.50923581      15.50194528      15.49538897      15.49449561      15.49766107      15.49758531      15.47780970      15.46686127      15.46466625      15.46359033      15.46351067      15.46504313      15.46177652      15.45025231      15.40734188      15.35913643      15.33099826      15.30939631      15.29302488      15.26399746
        15.24608025      15.24638864      15.25097563      15.26099363      15.27479155      15.28673800      15.29430853      15.30390077      15.31455647      15.32069637      15.32360808      15.32358128      15.32197397      15.32424991      15.32069754      15.31058853      15.29106676      15.29129201      15.31474047      15.34617352
        15.38211515      15.41084898      15.42708662      15.43392589      15.43865922      15.44451606      15.44658366      15.44865513      15.44836182      15.44650098      15.44902252      15.45388871      15.44585357      15.42929952      15.42170046      15.43338540      15.44744173      15.47601839      15.51434111      15.58167952
        15.64413815      15.72878090      15.83930831      15.94215806      16.03543082      16.09263384      16.16287675      16.22674037      16.25815584      16.27337844      16.28518427      16.29526830      16.29568436      16.27351919      16.23813486      16.20240867      16.20169346      16.23101011      16.27134549      16.30273770
        16.29734327      16.28605233      16.29090692      16.28925385      16.30144283      16.29526168      16.28946062      16.28793619      16.28583500      16.26917848      16.21661081      16.16654855      16.11715226      16.03501401      15.97402235      15.93154756      15.90906153      15.91030936      15.92900383      15.95388648
        15.51180146      15.50426965      15.49641792      15.49362659      15.49313527      15.49101565      15.47753109      15.46710474      15.46279863      15.46042127      15.45928832      15.45943874      15.46261576      15.45572653      15.42479067      15.36460392      15.32514749      15.30735379      15.29426394      15.27367229
        15.25562051      15.25560813      15.26242297      15.27376012      15.28840783      15.29970632      15.31295212      15.32593336      15.33806885      15.34232588      15.34418642      15.34440895      15.34348191      15.34864640      15.35215438      15.34515662      15.33393990      15.33256221      15.35495827      15.38081459
        15.40768353      15.43286851      15.44538294      15.44827634      15.45175211      15.45513605      15.45892288      15.46385637      15.46963351      15.46891298      15.47161831      15.48201508      15.49158912      15.48893733      15.48050641      15.50128490      15.51689263      15.54146170      15.59286467      15.71201047
        15.79625401      15.87926571      15.95675011      16.03559438      16.11231787      16.17614014      16.22727936      16.26845874      16.28778712      16.29954125      16.31119499      16.31936830      16.32485360      16.32548207      16.31011548      16.29127121      16.28409974      16.31532179      16.35011789      16.38924072
        16.38981325      16.35886010      16.34182224      16.33489504      16.33810178      16.32120307      16.30050699      16.29508891      16.29218511      16.28194689      16.24314570      16.19225923      16.16039735      16.11129140      16.05697513      16.02555428      15.98230429      15.96548092      15.97308218      15.98948484
        15.51308815      15.50211551      15.49374308      15.49034599      15.48726801      15.48113852      15.47059766      15.46199489      15.45678017      15.45287674      15.45051102      15.44907315      15.45110697      15.44735165      15.41656995      15.35868736      15.31402862      15.30028680      15.28825660      15.27242883
        15.26087430      15.25989277      15.26913984      15.28633946      15.30044041      15.31142787      15.32947130      15.34778648      15.36127954      15.36621216      15.36853704      15.36653203      15.37003678      15.37638008      15.38639945      15.38258948      15.37663785      15.37423475      15.38921465      15.40448538