# File generated by Flopy version 3.5.0 on 02/27/2024 at 10:18:56.
BEGIN options
END options

BEGIN griddata
  icelltype
    CONSTANT  0
  k
    INTERNAL  FACTOR  1.0
    2.32066297E-04  4.49357567E-04  6.99457809E-04  4.84509860E-04  2.36012730E-04  1.94248846E-04  1.88289473E-04  1.97095086E-04  1.51165708E-04  1.39727325E-04  1.28364474E-04  9.04667874E-05  9.57746777E-05  9.22033901E-05  1.04435341E-04  1.07692474E-04  8.03417765E-05  8.26945001E-05  1.00075575E-04  1.28443275E-04
    1.06648930E-04  9.10264195E-05  7.14137144E-05  4.01923179E-05  6.66915225E-05  1.56649995E-04  2.15072789E-04  2.19224785E-04  1.89721682E-04  1.16231567E-04  4.89744319E-05  6.08123563E-05  1.19353897E-04  1.20195261E-04  7.61535304E-05  2.99839600E-05  1.83320796E-05  1.74510065E-05  2.23352588E-05  3.16237388E-05
    3.68727610E-05  5.71415732E-05  8.37368192E-05  1.44153989E-04  1.43380132E-04  6.68305167E-05  8.04444161E-05  1.95386569E-04  3.10399060E-04  1.54861272E-04  6.11325079E-05  5.25809834E-05  7.66764784E-05  2.17895461E-04  3.88605080E-04  3.75771612E-04  3.28897446E-04  2.28048728E-04  2.23167237E-04  2.08784609E-04
    1.74539602E-04  1.33897480E-04  1.19653165E-04  1.46411897E-04  1.41336775E-04  2.63772179E-04  5.48928546E-04  5.22925711E-04  3.43335811E-04  1.53902181E-04  6.93868133E-05  3.40168178E-05  3.48911388E-05  4.56560190E-05  2.66366541E-05  1.50811578E-05  9.10099795E-06  8.09681097E-06  1.27140484E-05  4.13165500E-05
    2.13313111E-04  4.05350650E-04  4.99782424E-04  6.88720584E-04  9.77561808E-04       0.00115702  8.18974867E-04  7.12430345E-04  5.62325274E-04  4.02760240E-04  2.25345619E-04  1.03102591E-04  1.19979026E-04  1.56119660E-04  1.35373888E-04  1.13657481E-04  1.43454688E-04  2.39397314E-04  2.88388468E-04  4.58755079E-04
    1.84358287E-04  4.27100176E-04  7.02116887E-04  5.92953219E-04  3.03606707E-04  2.32689358E-04  2.00696084E-04  1.98575869E-04  1.46897358E-04  1.07640261E-04  1.07034987E-04  8.27222593E-05  8.21943306E-05  7.74623188E-05  8.48017461E-05  1.09797239E-04  8.88986706E-05  7.87053391E-05  8.14596919E-05  1.03138499E-04
    9.58145391E-05  7.56810882E-05  7.06506351E-05  4.15258600E-05  5.05960624E-05  1.23862804E-04  2.13613435E-04  2.56440660E-04  2.26572358E-04  1.56999045E-04  6.06782219E-05  4.78271848E-05  9.72502837E-05  1.33562738E-04  1.06133804E-04  3.89202051E-05  1.67922425E-05  1.37451816E-05  1.64103404E-05  2.53334040E-05
    3.02561445E-05  4.42572781E-05  6.37816339E-05  1.06659506E-04  1.60032998E-04  9.05939162E-05  7.58015934E-05  1.48248288E-04  3.01865854E-04  2.26386328E-04  7.99554635E-05  5.59240286E-05  7.26971400E-05  1.83574206E-04  3.92641998E-04  4.43428669E-04  4.37216263E-04  2.63170078E-04  1.87254492E-04  1.60823725E-04
    1.30149972E-04  1.05281232E-04  9.03306345E-05  1.19919004E-04  1.29949548E-04  2.30939208E-04  6.57673798E-04  8.65917503E-04  6.48013913E-04  2.83695462E-04  1.14197161E-04  5.05628096E-05  3.97294606E-05  5.64975161E-05  3.98809548E-05  2.03769558E-05  1.02775055E-05  7.64296078E-06  1.11731891E-05  2.62727558E-05
    1.19767397E-04  3.00792657E-04  3.96407141E-04  5.58199083E-04  8.85360004E-04       0.00138671       0.00102633  7.28973626E-04  6.05373126E-04  4.79291611E-04  3.10687947E-04  1.16174013E-04  9.50536268E-05  1.37321230E-04  1.39741642E-04  1.17881399E-04  1.27398204E-04  2.09174806E-04  2.34031523E-04  3.37649814E-04
    1.36989245E-04  3.71875678E-04  7.06695233E-04  7.06386885E-04  3.83928599E-04  2.87929758E-04  2.26093546E-04  1.93082205E-04  1.47071490E-04  9.02430004E-05  8.36024652E-05  7.01684637E-05  6.84673768E-05  6.62914665E-05  6.71190344E-05  1.01650915E-04  9.92229720E-05  8.15337102E-05  7.14302595E-05  8.19903615E-05
    9.12743620E-05  7.21982505E-05  7.10176130E-05  4.67733793E-05  4.41778905E-05  9.75571596E-05  1.87635678E-04  2.72888818E-04  2.62070660E-04  1.95196891E-04  7.96641738E-05  4.28729590E-05  7.39420209E-05  1.26403991E-04  1.39512473E-04  6.03461347E-05  1.93280459E-05  1.24501182E-05  1.31518091E-05  2.08693165E-05
    2.66484513E-05  3.73882809E-05  5.53403246E-05  8.28718600E-05  1.55874891E-04  1.24294634E-04  8.80890278E-05  1.28470721E-04  2.60607844E-04  2.91595411E-04  1.09016952E-04  5.66981005E-05  6.27444277E-05  1.46079166E-04  3.75042622E-04  4.96007372E-04  5.96118315E-04  3.92350988E-04  2.07715348E-04  1.50722186E-04
    1.16191455E-04  9.62091652E-05  7.54292346E-05  9.55866924E-05  1.18124756E-04  1.97063204E-04  6.97136312E-04       0.00133558       0.00124103  5.84984206E-04  2.05195002E-04  8.16862185E-05  4.92305052E-05  6.49534128E-05  5.62103984E-05  3.01973670E-05  1.39428239E-05  7.90684884E-06  1.05092330E-05  2.05698344E-05
    7.20654976E-05  2.12052478E-04  3.21731555E-04  4.56639203E-04  6.98959863E-04       0.00136364       0.00131998  8.33108179E-04  6.68758429E-04  5.62829058E-04  4.41391341E-04  1.60640933E-04  8.74985785E-05  1.21711768E-04  1.46658957E-04  1.25238177E-04  1.08771884E-04  1.70423594E-04  2.06868142E-04  2.48957256E-04
    1.06296748E-04  2.78975968E-04  6.53036901E-04  8.30183411E-04  4.79153804E-04  3.42975667E-04  2.62515559E-04  1.84179756E-04  1.41023503E-04  8.15403522E-05  6.58584391E-05  5.57587870E-05  5.26996579E-05  5.58850305E-05  5.46780166E-05  8.83901012E-05  1.06830132E-04  8.79889286E-05  6.87064683E-05  6.62353812E-05
    8.50943981E-05  7.68796196E-05  7.59064607E-05  5.51249745E-05  4.33813982E-05  8.35888449E-05  1.59121464E-04  2.52480875E-04  2.80553274E-04  2.24961814E-04  1.03969655E-04  4.38814000E-05  5.82568612E-05  1.05941147E-04  1.54108686E-04  9.75957354E-05  2.82398074E-05  1.37209937E-05  1.19730696E-05  1.77404731E-05
    2.42483498E-05  3.30219536E-05  5.25547886E-05  7.19468133E-05  1.39960571E-04  1.56025178E-04  1.13173249E-04  1.35990581E-04  2.34141000E-04  3.31420096E-04  1.51555325E-04  5.99398092E-05  5.01670330E-05  1.02496497E-04  3.26086554E-04  5.23000823E-04  7.40953896E-04  6.55520464E-04  3.09298788E-04  1.79369159E-04
    1.25096454E-04  1.04748360E-04  7.54739092E-05  7.97198207E-05  1.05906170E-04  1.65959142E-04  6.49317789E-04       0.00179146       0.00216212       0.00125647  4.14282906E-04  1.43679002E-04  6.69703858E-05  7.32488090E-05  7.30582695E-05  4.48819570E-05  2.26336900E-05  1.00292505E-05  1.04796346E-05  1.87923761E-05
    5.14590931E-05  1.53678038E-04  2.65202546E-04  3.93108020E-04  5.31455268E-04       0.00105937       0.00148794       0.00100938  7.66620060E-04  6.40445818E-04  5.89313431E-04  2.52442610E-04  9.84533589E-05  1.12988048E-04  1.55373771E-04  1.42860754E-04  9.77894427E-05  1.26691464E-04  1.87125893E-04  2.05570981E-04
    9.64258717E-05  1.89849741E-04  5.01645116E-04  8.98870106E-04  6.05043214E-04  3.85797441E-04  2.96205625E-04  1.77239632E-04  1.27136701E-04  7.53801351E-05  5.42925590E-05  4.39770315E-05  3.76851999E-05  4.38850986E-05  4.58927392E-05  7.56555300E-05  1.10360484E-04  9.41328898E-05  7.05347352E-05  5.70061063E-05
    7.48887012E-05  8.29502116E-05  8.61326758E-05  6.79747713E-05  4.57875003E-05  7.79854084E-05  1.45066090E-04  2.13627041E-04  2.62954903E-04  2.38745421E-04  1.32258964E-04  4.97950494E-05  5.02089150E-05  8.68450722E-05  1.41473597E-04  1.40353978E-04  4.80125225E-05  1.86990762E-05  1.28364596E-05  1.58522354E-05
    2.21098507E-05  2.92011510E-05  5.05972617E-05  6.84596660E-05  1.22171236E-04  1.74281236E-04  1.42588744E-04  1.65591735E-04  2.47720530E-04  3.64309216E-04  2.09122881E-04  7.07369121E-05  4.19701996E-05  6.44758113E-05  2.40311267E-04  5.15868633E-04  8.09823499E-04       0.00103088  5.63007873E-04  2.74934754E-04
    1.61265895E-04  1.30615197E-04  9.21060998E-05  7.56007515E-05  9.56257971E-05  1.37818879E-04  5.29915250E-04       0.00202357       0.00317170       0.00247932  9.10707296E-04  2.82506964E-04  1.01070696E-04  8.44672868E-05  9.07724836E-05  6.35560511E-05  3.99560242E-05  1.65542657E-05  1.20107547E-05  1.88514632E-05
    4.38749746E-05  1.24747330E-04  2.27141647E-04  3.53404010E-04  4.27502294E-04  7.01498970E-04       0.00131306       0.00115054  8.88307893E-04  7.11173110E-04  6.98278556E-04  3.98415467E-04  1.33572935E-04  1.15120629E-04  1.63397841E-04  1.71808082E-04  1.01877401E-04  9.25416289E-05  1.57556797E-04  1.90797364E-04
    1.05187932E-04  1.33611702E-04  3.19389040E-04  7.97899496E-04  7.50710965E-04  4.25941428E-04  3.11826184E-04  1.72649176E-04  1.11334672E-04  6.89152554E-05  4.63604019E-05  3.61762096E-05  2.67502690E-05  3.14945451E-05  3.80414813E-05  6.48189599E-05  1.11528982E-04  9.83860168E-05  7.31960655E-05  5.34641266E-05
    6.41962910E-05  8.32307976E-05  9.65685059E-05  8.75748174E-05  5.17889780E-05  7.51857577E-05  1.47323724E-04  1.86735769E-04  2.17579254E-04  2.25447011E-04  1.62812286E-04  6.19654866E-05  4.76378615E-05  7.53322952E-05  1.18129972E-04  1.64653431E-04  8.20468376E-05  2.98894950E-05  1.63928588E-05  1.54106771E-05
    2.00404723E-05  2.51399025E-05  4.60877298E-05  6.66898015E-05  1.04441748E-04  1.74450583E-04  1.65935541E-04  2.05334577E-04  3.10330910E-04  4.37303314E-04  2.92310449E-04  9.45686500E-05  4.20616340E-05  4.18627040E-05  1.46606946E-04  4.51607085E-04  7.95188852E-04       0.00136405       0.00105803  5.13800878E-04
    2.47448355E-04  1.75819755E-04  1.29118741E-04  8.56308301E-05  9.15359336E-05  1.14546622E-04  3.78509722E-04       0.00188797       0.00384683       0.00402752       0.00195302  6.19658040E-04  1.75203785E-04  1.02725008E-04  1.12030701E-04  8.72360516E-05  6.88064957E-05  3.35845986E-05  1.74389154E-05  2.09455136E-05
    4.22887986E-05  1.16290371E-04  2.12857720E-04  3.27814420E-04  3.77994765E-04  4.54573079E-04  9.08128250E-04       0.00109728  9.67318725E-04  7.74439564E-04  7.35942920E-04  5.65292517E-04  2.01578372E-04  1.32086816E-04  1.71802199E-04  2.04363034E-04  1.25126769E-04  7.60955626E-05  1.20243859E-04  1.80494303E-04
    1.28910045E-04  1.08441225E-04  1.90171640E-04  5.47873539E-04  8.23943438E-04  4.77549339E-04  3.11495002E-04  1.68082162E-04  9.87286584E-05  6.30662080E-05  4.02337352E-05  3.12074571E-05  2.04210247E-05  2.16518327E-05  3.00124827E-05  5.43129122E-05  1.10712444E-04  1.02888805E-04  7.42659370E-05  5.34712762E-05
    5.69373581E-05  7.70712615E-05  9.78786771E-05  1.11543984E-04  6.48002914E-05  7.33525022E-05  1.57669295E-04  1.86038806E-04  1.75834397E-04  1.86711502E-04  1.87027389E-04  8.48291184E-05  5.00163982E-05  7.04645877E-05  1.00681598E-04  1.62327002E-04  1.24601894E-04  5.02027756E-05  2.39987020E-05  1.68615863E-05
    1.85298512E-05  2.10738853E-05  3.82555600E-05  6.22266130E-05  8.54003037E-05  1.55338276E-04  1.77546879E-04  2.37448638E-04  4.15751822E-04  6.04779452E-04  4.43207302E-04  1.42700721E-04  5.37227776E-05  3.41619812E-05  8.19959829E-05  3.29552368E-04  7.09959924E-04       0.00149263       0.00175357       0.00102811
    4.39901392E-04  2.47133881E-04  1.88017852E-04  1.13577677E-04  9.79008751E-05  1.00099076E-04  2.43441588E-04       0.00142517       0.00391866       0.00520826       0.00356758       0.00139881  3.59491489E-04  1.38865876E-04  1.39204697E-04  1.21154612E-04  1.10469791E-04  7.29957565E-05  3.26099851E-05  2.76395888E-05
    4.45941725E-05  1.18587823E-04  2.24592863E-04  3.19684937E-04  3.64806596E-04  3.25934751E-04  5.48801752E-04  8.41221246E-04  9.11268541E-04  8.08616599E-04  7.21016274E-04  6.88375113E-04  3.04434619E-04  1.66913043E-04  1.85774894E-04  2.29148262E-04  1.67452358E-04  7.77748589E-05  9.02216057E-05  1.56895948E-04
    1.60483341E-04  1.03074942E-04  1.24813001E-04  3.15104862E-04  7.17345582E-04  5.25035808E-04  3.10777741E-04  1.64644492E-04  9.07168615E-05  5.98457372E-05  3.58812747E-05  2.75482362E-05  1.74432415E-05  1.55618402E-05  2.27667562E-05  4.31598037E-05  1.04430092E-04  1.10231944E-04  7.49329399E-05  5.49380156E-05
    5.41088267E-05  7.03488147E-05  8.77800020E-05  1.27278629E-04  8.96682063E-05  7.62661791E-05  1.64998624E-04  2.10952342E-04  1.58837534E-04  1.44421736E-04  1.89845323E-04  1.23967079E-04  5.97013332E-05  7.01008667E-05  9.33094993E-05  1.49148932E-04  1.62402441E-04  7.93967384E-05  3.68490997E-05  2.08107472E-05
    1.83863932E-05  1.79052476E-05  2.90360175E-05  5.35635785E-05  6.61741353E-05  1.20271627E-04  1.74229607E-04  2.52447468E-04  5.28313905E-04  9.07464580E-04  7.65831269E-04  2.47885400E-04  8.56847122E-05  4.00038611E-05  5.20438912E-05  2.03301144E-04  5.61899272E-04       0.00139665       0.00237577       0.00188992
    8.40042985E-04  3.62010676E-04  2.62563238E-04  1.62982180E-04  1.18437065E-04  9.80484477E-05  1.53283129E-04  8.71382137E-04       0.00337752       0.00558324       0.00513402       0.00281116  8.39795960E-04  2.25225436E-04  1.77187990E-04  1.72274499E-04  1.68742992E-04  1.50230165E-04  7.16901334E-05  4.55414946E-05
    5.32148999E-05  1.24242480E-04  2.57061574E-04  3.38399950E-04  3.80308010E-04  2.76491717E-04  3.37018358E-04  5.51078276E-04  7.17152181E-04  7.75495767E-04  6.87429691E-04  7.37703362E-04  4.27891445E-04  2.18725806E-04  2.09724380E-04  2.43637722E-04  2.18305363E-04  9.76304729E-05  7.57136894E-05  1.23917935E-04
    1.89834379E-04  1.08057676E-04  9.93838899E-05  1.83032571E-04  4.92272584E-04  5.15751275E-04  3.15551773E-04  1.68078989E-04  8.76641866E-05  6.01116899E-05  3.41847081E-05  2.45633856E-05  1.64114500E-05  1.25684194E-05  1.75479919E-05  3.26320054E-05  8.91337757E-05  1.18809544E-04  7.86699357E-05  5.74774342E-05
    5.48159000E-05  6.82215421E-05  7.53834538E-05  1.22138790E-04  1.27056373E-04  9.12127474E-05  1.67652648E-04  2.50296152E-04  1.71960954E-04  1.19277484E-04  1.68425976E-04  1.77151590E-04  8.22869024E-05  7.42084687E-05  9.36489025E-05  1.40168743E-04  1.90811032E-04  1.12798734E-04  5.37099324E-05  2.75755920E-05
    2.03848354E-05  1.66334589E-05  2.12401581E-05  4.22161350E-05  4.99431645E-05  8.15291189E-05  1.52175688E-04  2.51949677E-04  6.01790890E-04       0.00130360       0.00144651  5.09652529E-04  1.62832720E-04  6.70692813E-05  4.63686605E-05  1.21818374E-04  3.87873377E-04       0.00114407       0.00264569       0.00287843
         0.00153642  5.51325057E-04  3.43921371E-04  2.31504535E-04  1.55452925E-04  1.11217413E-04  1.06910996E-04  4.59892773E-04       0.00244045       0.00525798       0.00593686       0.00442336       0.00194402  4.57026728E-04  2.45444710E-04  2.45534332E-04  2.51810135E-04  2.78278317E-04  1.61914367E-04  9.02768539E-05
    7.64343412E-05  1.33123515E-04  2.93923654E-04  3.87484099E-04  4.29928570E-04  2.83357263E-04  2.38738495E-04  3.48947083E-04  4.92468740E-04  6.64550890E-04  6.52028151E-04  7.39574394E-04  5.53706631E-04  2.81766089E-04  2.42136432E-04  2.55777479E-04  2.60073394E-04  1.35363285E-04  7.65463303E-05  9.74557219E-05
    2.08020093E-04  1.17404047E-04  9.44792788E-05  1.27938951E-04  3.04246926E-04  4.24943085E-04  3.10238091E-04  1.82994269E-04  9.14892108E-05  6.36912399E-05  3.58812670E-05  2.25851306E-05  1.63149143E-05  1.16364276E-05  1.45954217E-05  2.45983229E-05  6.75539539E-05  1.21259114E-04  8.77243305E-05  6.30147702E-05
    5.83985920E-05  7.21900092E-05  7.03172536E-05  1.03113596E-04  1.64281627E-04  1.27221337E-04  1.77842476E-04  2.87895140E-04  2.13957554E-04  1.18936398E-04  1.41142682E-04  2.23366433E-04  1.25024942E-04  8.53925060E-05  9.87629423E-05  1.38781924E-04  2.16523897E-04  1.48455977E-04  7.05602808E-05  3.61097457E-05
    2.50203920E-05  1.82232940E-05  1.65946733E-05  3.11591537E-05  3.83555330E-05  5.19672090E-05  1.15270828E-04  2.35357515E-04  6.20909097E-04       0.00162956       0.00261652       0.00120499  3.58004798E-04  1.44589678E-04  6.34090765E-05  8.74615009E-05  2.48567539E-04  8.24977418E-04       0.00250295       0.00356268
         0.00242614  8.46234564E-04  4.32867827E-04  3.09877908E-04  2.07081525E-04  1.41905972E-04  9.17268354E-05  2.39920617E-04       0.00149465       0.00445611       0.00597715       0.00528464       0.00369854       0.00108572  4.03387998E-04  3.50071092E-04  3.63207228E-04  4.63891534E-04  3.42102401E-04  1.92901123E-04
    1.33628348E-04  1.55558892E-04  3.17603472E-04  4.53040127E-04  5.23451040E-04  3.50089952E-04  2.10717672E-04  2.41447856E-04  3.26320462E-04  5.18117294E-04  6.17927993E-04  7.32957081E-04  6.80633758E-04  3.53917994E-04  2.75566478E-04  2.72364179E-04  2.86093162E-04  1.84958694E-04  9.06138222E-05  8.53910190E-05
    2.06500398E-04  1.29651270E-04  9.93501005E-05  1.14064072E-04  2.05957728E-04  3.08414026E-04  2.74056075E-04  2.04492115E-04  1.05819824E-04  7.07845372E-05  4.13260597E-05  2.22363134E-05  1.66463597E-05  1.20336927E-05  1.34579259E-05  1.96266003E-05  4.71373732E-05  1.10419513E-04  1.00306271E-04  7.43473790E-05
    6.60585828E-05  8.16326600E-05  7.72642106E-05  8.83429025E-05  1.82396146E-04  1.90701021E-04  2.12629402E-04  3.21725155E-04  2.75907855E-04  1.46688757E-04  1.27875403E-04  2.38865349E-04  1.87559307E-04  1.07012951E-04  1.07778182E-04  1.41662848E-04  2.43218718E-04  1.92660133E-04  8.58027475E-05  4.38235365E-05
    3.18345985E-05  2.40508921E-05  1.56820801E-05  2.29613195E-05  3.08228858E-05  3.48872462E-05  7.83417129E-05  1.98990126E-04  5.90452065E-04       0.00174509       0.00393222       0.00288898  8.82477049E-04  3.52163419E-04  1.24087273E-04  8.81986251E-05  1.71773645E-04  5.42662530E-04       0.00204862       0.00371496
         0.00316380       0.00124154  5.40348388E-04  3.91896164E-04  2.67393448E-04  1.88925050E-04  9.94604023E-05  1.45047317E-04  8.33016346E-04       0.00337553       0.00558662       0.00516954       0.00508166       0.00251159  8.12023936E-04  5.26831257E-04  4.94617838E-04  6.90682617E-04  6.56632360E-04  4.00165571E-04
    2.64138657E-04  2.12698391E-04  3.32567934E-04  5.04231235E-04  6.54188546E-04  5.07473903E-04  2.39835042E-04  1.98553340E-04  2.31779556E-04  3.89565414E-04  5.88650741E-04  7.42336649E-04  8.19637974E-04  4.47292659E-04  3.05825557E-04  2.91872278E-04  3.03622611E-04  2.36908551E-04  1.15164760E-04  8.69629413E-05
    1.78685037E-04  1.45481551E-04  1.09255028E-04  1.21615742E-04  1.73670434E-04  2.29260975E-04  2.15144216E-04  2.13460406E-04  1.33278640E-04  8.31718259E-05  5.07050411E-05  2.39861788E-05  1.73590232E-05  1.33569251E-05  1.36118333E-05  1.71530784E-05  3.25339108E-05  8.85576532E-05  1.09848894E-04  9.23559734E-05
    8.10015235E-05  9.61840607E-05  9.88300357E-05  8.89114696E-05  1.82743138E-04  2.72939891E-04  2.85602243E-04  3.71608857E-04  3.43823785E-04  2.05407197E-04  1.38611730E-04  2.30320869E-04  2.49146541E-04  1.38648692E-04  1.21247889E-04  1.45188188E-04  2.62367318E-04  2.53149743E-04  1.04384897E-04  4.93452156E-05
    3.86717716E-05  3.58161045E-05  1.94868614E-05  1.88085467E-05  2.61650296E-05  2.70115440E-05  5.30561347E-05  1.50497352E-04  5.06758713E-04       0.00165000       0.00460331       0.00585871       0.00223670  8.76363794E-04  2.94855725E-04  1.27087845E-04  1.49965451E-04  3.61779327E-04       0.00147514       0.00338954
         0.00347221       0.00166901  6.77392937E-04  4.81802785E-04  3.33877026E-04  2.44229233E-04  1.28114867E-04  1.12858535E-04  4.77486728E-04       0.00230486       0.00487762       0.00462507       0.00505372       0.00455530       0.00182177  8.97890486E-04  6.50447630E-04  8.91173319E-04       0.00113130  7.73526984E-04
    5.27246969E-04  3.41759847E-04  3.67918012E-04  5.25750523E-04  7.77438337E-04  8.02037699E-04  3.50232106E-04  2.02822765E-04  1.89330813E-04  3.00993554E-04  5.69862320E-04  7.83419037E-04  9.74306892E-04  5.84895001E-04  3.41880486E-04  3.09490906E-04  3.18224361E-04  2.87656053E-04  1.47707390E-04  9.87911530E-05
    1.32393768E-04  1.60817502E-04  1.24400616E-04  1.39583884E-04  1.80659052E-04  2.02443868E-04  1.65427030E-04  1.92768331E-04  1.67906597E-04  1.03648722E-04  6.45619524E-05  2.82648842E-05  1.86295155E-05  1.54299282E-05  1.47450706E-05  1.64002034E-05  2.36877157E-05  6.50362661E-05  1.09779187E-04  1.12484246E-04
    1.06183061E-04  1.17749923E-04  1.36542216E-04  1.10729905E-04  1.86227242E-04  3.50320515E-04  3.94258702E-04  4.60497040E-04  4.17527373E-04  2.89659709E-04  1.79306202E-04  2.25113397E-04  2.84335349E-04  1.70802144E-04  1.37300876E-04  1.48530187E-04  2.60164349E-04  3.23430072E-04  1.35233593E-04  5.50792352E-05
    4.31254003E-05  5.29740064E-05  3.12148491E-05  1.91940361E-05  2.39115302E-05  2.46688155E-05  4.02955707E-05  1.07910939E-04  3.79109898E-04       0.00138801       0.00431112       0.00874518       0.00500138       0.00204164  7.21127726E-04  2.33442733E-04  1.76248331E-04  2.82481212E-04  9.91738924E-04       0.00275533
         0.00335114       0.00203528  8.49414751E-04  5.88368986E-04  4.13569169E-04  2.98137734E-04  1.76332250E-04  1.13452906E-04  3.15129247E-04       0.00149923       0.00387538       0.00402748       0.00407458       0.00569949       0.00371751       0.00172720  8.95765005E-04  9.92881557E-04       0.00167747       0.00140010
    9.85819285E-04  6.00513380E-04  4.62747027E-04  5.46519815E-04  8.38144193E-04       0.00122856  6.17944167E-04  2.60917334E-04  1.83758381E-04  2.48544108E-04  5.59193846E-04  8.70246777E-04       0.00113850  7.82646963E-04  4.02612111E-04  3.28178057E-04  3.27403911E-04  3.36371807E-04  1.90799725E-04  1.18044780E-04
    8.89702325E-05  1.63868155E-04  1.45864470E-04  1.61501247E-04  2.08010370E-04  2.20436599E-04  1.44889789E-04  1.53702202E-04  1.88786691E-04  1.32179525E-04  8.43129659E-05  3.59429693E-05  2.06845322E-05  1.81476138E-05  1.68351723E-05  1.69113434E-05  1.88106618E-05  4.62672695E-05  1.00257936E-04  1.25233125E-04
    1.38337728E-04  1.49374377E-04  1.89285018E-04  1.60395559E-04  2.10799918E-04  4.13488547E-04  5.06626299E-04  5.85235861E-04  5.15686780E-04  3.85104766E-04  2.52441989E-04  2.42713510E-04  2.97746486E-04  1.90846625E-04  1.48570089E-04  1.51557882E-04  2.34362166E-04  3.71313742E-04  1.85543518E-04  6.60718810E-05
    4.56625569E-05  6.91863052E-05  5.63818134E-05  2.56897115E-05  2.46226965E-05  2.57517945E-05  3.62500341E-05  8.17251944E-05  2.51590074E-04       0.00100402       0.00340901       0.00933369       0.00843852       0.00399107       0.00160111  4.66536532E-04  2.60361641E-04  2.84138463E-04  6.96976314E-04       0.00204329
         0.00293457       0.00227645       0.00105946  7.15948723E-04  5.18542907E-04  3.49820947E-04  2.37470954E-04  1.36256711E-04  2.49568104E-04       0.00100491       0.00279430       0.00338315       0.00304169       0.00502488       0.00563628       0.00329805       0.00138618       0.00102873       0.00202763       0.00234057
         0.00171196       0.00105401  6.63186652E-04  6.22461831E-04  8.46943005E-04       0.00162988       0.00116354  4.12589219E-04  2.14380425E-04  2.23174110E-04  5.39763146E-04       0.00100242       0.00131336       0.00102775  5.03987104E-04  3.61085489E-04  3.30628949E-04  3.72108748E-04  2.52511382E-04  1.46888767E-04
    6.19025122E-05  1.47054323E-04  1.68214294E-04  1.85104083E-04  2.38096563E-04  2.70211199E-04  1.58347614E-04  1.22413838E-04  1.78213321E-04  1.59573365E-04  1.11062012E-04  4.91163730E-05  2.40044288E-05  2.12976304E-05  2.00469802E-05  1.87563309E-05  1.65538119E-05  3.32038129E-05  8.63625521E-05  1.25420446E-04
    1.62626971E-04  1.88050276E-04  2.52393458E-04  2.41294977E-04  2.62041610E-04  4.74581050E-04  5.86651705E-04  6.92241129E-04  6.46945618E-04  4.86301384E-04  3.49502484E-04  2.88911789E-04  3.17001305E-04  2.01133643E-04  1.47689362E-04  1.51208772E-04  1.96999095E-04  3.60828492E-04  2.50736335E-04  8.81314927E-05
    4.97685068E-05  7.67097316E-05  9.53511866E-05  4.23565526E-05  2.98506235E-05  2.96950289E-05  3.74205297E-05  7.07530058E-05  1.63256469E-04  6.11684346E-04       0.00231327       0.00756308       0.01000191       0.00581578       0.00290514  8.94313788E-04  4.19146410E-04  3.59600087E-04  5.73097286E-04       0.00146886
         0.00237349       0.00234807       0.00130703  8.62470273E-04  6.55088227E-04  4.07746719E-04  3.01104118E-04  1.77236659E-04  2.28392982E-04  7.25874695E-04       0.00190596       0.00265048       0.00226287       0.00354639       0.00583772       0.00511698       0.00233187       0.00112762       0.00200290       0.00339332
         0.00280066       0.00176213       0.00102096  8.18157112E-04  8.88138682E-04       0.00180367       0.00200024  7.40768209E-04  2.99000491E-04  2.22097034E-04  4.92487098E-04       0.00113027       0.00150782       0.00128169  6.44189803E-04  4.21020640E-04  3.38570921E-04  3.78197518E-04  3.33961479E-04  1.96770458E-04
    5.07340932E-05  1.20091226E-04  1.77697588E-04  2.06728464E-04  2.59619318E-04  3.25090885E-04  2.07221914E-04  1.12241150E-04  1.47974495E-04  1.69714304E-04  1.41394354E-04  7.18190689E-05  2.99512049E-05  2.46784430E-05  2.44073151E-05  2.25077923E-05  1.65461383E-05  2.47309081E-05  7.16453490E-05  1.17575574E-04
    1.64076150E-04  2.15938637E-04  3.12998636E-04  3.44539264E-04  3.28194789E-04  5.32033202E-04  6.32494286E-04  7.15046926E-04  7.68725674E-04  5.97769470E-04  4.55239711E-04  3.58709288E-04  3.64409214E-04  2.21874764E-04  1.38844071E-04  1.43175627E-04  1.60451165E-04  2.95485803E-04  3.04286430E-04  1.25922638E-04
    5.97356926E-05  7.60756568E-05  1.31134002E-04  7.33340780E-05  4.20048603E-05  3.74625757E-05  4.13869052E-05  6.92091302E-05  1.17130357E-04  3.33394382E-04       0.00132732       0.00498969       0.00868715       0.00595063       0.00388495       0.00151037  6.50153984E-04  5.04499732E-04  5.70739957E-04       0.00111485
         0.00182866       0.00221459       0.00156415       0.00101975  8.13997232E-04  4.80868035E-04  3.59365547E-04  2.33343210E-04  2.26114739E-04  5.54843572E-04       0.00129351       0.00193075       0.00169321       0.00229792       0.00441148       0.00557413       0.00364887       0.00142458       0.00178253       0.00398887
         0.00421179       0.00280154       0.00158637       0.00120963       0.00106962       0.00178221       0.00279425       0.00132858  4.79218338E-04  2.52662810E-04  4.21802174E-04       0.00114463       0.00169422       0.00151971  7.98712198E-04  5.04944534E-04  3.66791754E-04  3.56808498E-04  4.10224977E-04  2.86379965E-04
    5.05787243E-05  9.86238935E-05  1.66771915E-04  2.15261291E-04  2.71198147E-04  3.53818259E-04  2.82054130E-04  1.25191896E-04  1.22554050E-04  1.58467042E-04  1.64573071E-04  1.09074871E-04  4.17907015E-05  2.87577945E-05  2.95052820E-05  2.89017871E-05  1.94103894E-05  2.00183670E-05  5.71385256E-05  1.08101386E-04
    1.47078952E-04  2.11169846E-04  3.41991108E-04  4.45309652E-04  3.83147150E-04  5.46326292E-04  6.51861060E-04  6.57103542E-04  7.97344529E-04  7.01943323E-04  5.62219592E-04  4.42483860E-04  4.47447733E-04  2.80746577E-04  1.37451960E-04  1.29154171E-04  1.30000019E-04  2.13145587E-04  3.11854061E-04  1.77194332E-04
    7.96201962E-05  7.43643731E-05  1.42125012E-04  1.12227401E-04  6.21970675E-05  5.10857914E-05  4.71913509E-05  7.03585751E-05  9.83899793E-05  1.86944040E-04  6.59477851E-04       0.00276222       0.00610259       0.00451334       0.00357887       0.00207719  9.16425964E-04  6.80945033E-04  6.40986991E-04  9.42529756E-04
         0.00141783       0.00190606       0.00174487       0.00116390  9.65674628E-04  5.71827185E-04  4.07947570E-04  3.00831878E-04  2.33469176E-04  4.27716857E-04  8.84440732E-04       0.00135081       0.00126781       0.00148617       0.00281699       0.00427760       0.00440178       0.00198467       0.00164606       0.00381258
         0.00543845       0.00421085       0.00242646       0.00187197       0.00152568       0.00179580       0.00312991       0.00209486  8.10116603E-04  3.35364825E-04  3.57937226E-04  9.79345357E-04       0.00175997       0.00174206  9.48937728E-04  5.85204812E-04  4.20646567E-04  3.32696757E-04  4.40041821E-04  4.24803342E-04
    5.63369117E-05  8.88753205E-05  1.46510285E-04  2.01201298E-04  2.71780177E-04  3.51042657E-04  3.48938784E-04  1.58864954E-04  1.13238225E-04  1.40752878E-04  1.71267566E-04  1.61438376E-04  6.63458295E-05  3.55126546E-05  3.48575900E-05  3.80289064E-05  2.68758951E-05  1.89634005E-05  4.41756405E-05  9.82333064E-05
    1.27733267E-04  1.77843639E-04  3.11143095E-04  5.02119119E-04  4.10679724E-04  4.81281808E-04  6.18962393E-04  5.72139620E-04  7.09595129E-04  7.43643411E-04  6.61501362E-04  5.38676455E-04  5.61167079E-04  4.12938022E-04  1.62838949E-04  1.19026662E-04  1.07436514E-04  1.44545047E-04  2.66898401E-04  2.25651291E-04
    1.11961728E-04  7.73976954E-05  1.30155928E-04  1.38365782E-04  8.43782542E-05  7.08646852E-05  5.58234192E-05  6.91003378E-05  9.23022829E-05  1.23467596E-04  3.17304125E-04       0.00130866       0.00372483       0.00293284       0.00234684       0.00214528       0.00114772  8.19743958E-04  7.17065403E-04  8.65716151E-04
         0.00116199       0.00153800       0.00173988       0.00124189       0.00106021  6.74015345E-04  4.44377767E-04  3.70778397E-04  2.52238519E-04  3.27782199E-04  5.94114460E-04  9.31307453E-04  9.65614546E-04  9.97951348E-04       0.00173345       0.00266086       0.00375229       0.00260013       0.00170464       0.00324724
         0.00572907       0.00569995       0.00364147       0.00285602       0.00244393       0.00206842       0.00308766       0.00273241       0.00129583  5.06468951E-04  3.30855658E-04  7.21553294E-04       0.00157963       0.00191558       0.00111828  6.33414075E-04  4.80930791E-04  3.27403567E-04  4.16940445E-04  5.76953057E-04
    6.18281501E-05  8.80731197E-05  1.33062514E-04  1.73569511E-04  2.56768244E-04  3.34405588E-04  3.75464210E-04  2.02052169E-04  1.19118274E-04  1.32553865E-04  1.66864781E-04  2.17577030E-04  1.15575003E-04  4.93087372E-05  4.11073325E-05  4.84685318E-05  4.15048192E-05  2.24160495E-05  3.50265483E-05  8.61250999E-05