# File generated by Flopy version 3.5.0 on 02/28/2024 at 08:51:16.
BEGIN griddata
  strt
    INTERNAL  FACTOR  1.0
        15.00000000      15.00000000      15.00000000      15.00000000      15.00000000      15.00000000      15.00000000      15.00000000      15.00000000      15.00000000      15.00000000      15.00000000      15.00000000      15.00000000      15.00000000      15.00000000      15.00000000      15.00000000      15.00000000      15.00000000
        15.00000000      15.00000000      15.00000000      15.00000000      15.00000000      15.00000000      15.00000000      15.00000000      15.00000000      15.00000000      15.00000000      15.00000000      15.00000000      15.00000000      15.00000000      15.00000000      15.00000000      15.00000000      15.00000000      15.00000000
        15.00000000      15.00000000      15.00000000      15.00000000      15.00000000      15.00000000      15.00000000      15.00000000      15.00000000      15.00000000      15.00000000      15.00000000      15.00000000      15.00000000      15.00000000      15.00000000      15.00000000      15.00000000      15.00000000      15.00000000
        15.00000000      15.00000000      15.00000000      15.00000000      15.00000000      15.00000000      15.00000000      15.00000000      15.00000000      15.00000000      15.00000000      15.00000000      15.00000000      15.00000000      15.00000000      15.00000000      15.00000000      15.00000000      15.00000000      15.00000000
        15.00000000      15.00000000      15.00000000      15.00000000      15.00000000      15.00000000      15.00000000      15.00000000      15.00000000      15.00000000      15.00000000      15.00000000      15.00000000      15.00000000      15.00000000      15.00000000      15.00000000      15.00000000      15.00000000      15.00000000
        15.03308307      15.03518998      15.03852630      15.04355369      15.04814648      15.05049557      15.05022163      15.04888932      15.04901715      15.04777818      15.04862558      15.05206600      15.05400142      15.05648485      15.05894473      15.06509310      15.07122382      15.07115200      15.06781298      15.06713132
        15.07321232      15.07922876      15.08669153      15.09102010      15.08098944      15.07498147      15.07948196      15.08774024      15.09535568      15.10367374      15.10820988      15.10039401      15.10129915      15.11833463      15.14120164      15.16179025      15.16885503      15.16405086      15.14829683      15.13258967
        15.11920327      15.10337927      15.09264557      15.08670941      15.09393910      15.10349107      15.09630537      15.08521599      15.08742061      15.10054742      15.10536949      15.09448972      15.07642618      15.06478555      15.06754231      15.07521710      15.08373631      15.08733132      15.08174361      15.07616940
        15.07347226      15.07368323      15.07377770      15.07746673      15.08970499      15.10580587      15.13080837      15.15721182      15.17709203      15.18925488      15.19157082      15.18644286      15.17186434      15.16961342      15.18275210      15.19274045      15.19404666      15.16996023      15.12069522      15.06979798
        15.04427554      15.04175599      15.04265091      15.04376514      15.04669968      15.05360315      15.06091824      15.06453863      15.07027693      15.07851485      15.08825732      15.08995391      15.08161784      15.08036425      15.08421443      15.08230583      15.07162924      15.06342237      15.05941621      15.05481747
        15.06761896      15.06869107      15.07352258      15.08034109      15.08681818      15.09116528      15.09280904      15.09213761      15.09364876      15.09517914      15.09712718      15.10204859      15.10628738      15.11192338      15.11738680      15.12537799      15.13484079      15.13828406      15.13703795      15.13692643
        15.14599652      15.15747946      15.16734768      15.17347513      15.16314442      15.15298984      15.15530079      15.16423259      15.17538245      15.18722224      15.19959477      15.20129946      15.20450892      15.22473080      15.25408046      15.28742743      15.31181192      15.31704049      15.29686508      15.26646841
        15.24020178      15.21168107      15.19087853      15.17663726      15.17722963      15.18718850      15.18406955      15.17191530      15.16930449      15.18054025      15.18783312      15.17474646      15.14627784      15.12566910      15.12683542      15.13690923      15.14879918      15.15888480      15.15883340      15.15388887
        15.15040989      15.15035288      15.15102420      15.15554672      15.17313664      15.19790126      15.22911280      15.25906409      15.28158662      15.29862724      15.30689378      15.30743827      15.29813956      15.29476629      15.30875897      15.32613891      15.33725563      15.31085735      15.23550564      15.15433943
        15.10543212      15.09425207      15.09344573      15.09338107      15.09459770      15.10158860      15.11342449      15.12300084      15.13336769      15.14591614      15.16033575      15.17051187      15.16731017      15.16502752      15.16917099      15.16711348      15.15047680      15.13371570      15.12794865      15.12191124
        15.10362570      15.10098423      15.10493869      15.11238532      15.11976188      15.12505666      15.12874091      15.13026997      15.13365254      15.13934355      15.14448561      15.15100375      15.15702026      15.16514751      15.17389242      15.18266564      15.19308483      15.19932082      15.20202265      15.20419064
        15.21402268      15.22910441      15.24141233      15.24957477      15.24290651      15.23229224      15.23114812      15.23620576      15.24714266      15.26110306      15.27937451      15.29344285      15.30260350      15.32169083      15.34975094      15.38596098      15.42136952      15.44349396      15.43306753      15.39533020
        15.35660826      15.31604682      15.28457601      15.26198556      15.25188107      15.25653720      15.25640380      15.24858206      15.24360603      15.24903975      15.25600615      15.24566385      15.21260980      15.18135567      15.17712732      15.18710088      15.19924893      15.21236814      15.21934430      15.21978881
        15.21837626      15.21919907      15.22177716      15.22677062      15.24430361      15.27088881      15.30094949      15.32775870      15.34761259      15.36452377      15.37665142      15.38352997      15.38369362      15.38430259      15.39714882      15.41569865      15.43206632      15.41594850      15.33926777      15.24501789
        15.18132825      15.15888166      15.15317854      15.14970561      15.14637191      15.14877176      15.16094410      15.17486697      15.18928683      15.20479285      15.22145708      15.23871799      15.24661658      15.24758750      15.25109044      15.25080927      15.23413324      15.20961307      15.20052949      15.19642844
        15.14199571      15.13420295      15.13417266      15.14084751      15.14881149      15.15464795      15.15961469      15.16381095      15.16945821      15.17882851      15.18849364      15.19853775      15.20753527      15.21740782      15.22832226      15.23695678      15.24655447      15.25372656      15.25963547      15.26574767
        15.27663688      15.29361086      15.30880836      15.32045412      15.31930757      15.31031136      15.30741460      15.30756984      15.31481881      15.32919802      15.35074414      15.37365192      15.39079384      15.41013941      15.43495489      15.46846986      15.50642926      15.54108544      15.54922412      15.51576385
        15.46657513      15.41260407      15.36750193      15.33640379      15.31601530      15.31282267      15.31240715      15.30883597      15.30575148      15.30737288      15.31227771      15.30592310      15.27484214      15.23383010      15.21980294      15.22784072      15.23900251      15.25194240      15.26236819      15.26785669
        15.26974569      15.27211683      15.27736680      15.28474553      15.30117342      15.32638939      15.35315428      15.37597023      15.39269671      15.40756251      15.42066103      15.43127054      15.43894159      15.44579017      15.45917382      15.47695460      15.49371199      15.48985654      15.43123079      15.33876425
        15.26744477      15.23501061      15.22260436      15.21385118      15.20499685      15.19931814      15.20724638      15.22258706      15.23962620      15.25746817      15.27537319      15.29595458      15.31296755      15.32082178      15.32527561      15.32764874      15.31736154      15.29026980      15.27437007      15.27179951
        15.18187556      15.17008714      15.16333523      15.16706653      15.17503363      15.18141282      15.18710288      15.19367818      15.20228918      15.21543116      15.23043350      15.24567084      15.25894263      15.26906119      15.27921131      15.28677444      15.29524024      15.30281013      15.31094676      15.32155206
        15.33445855      15.35160012      15.36832754      15.38323575      15.38839344      15.38278658      15.38072862      15.37909806      15.38156760      15.39439638      15.41749611      15.44556576      15.46959434      15.49076308      15.51261484      15.54075861      15.57563808      15.61297020      15.63592790      15.61629402
        15.56351402      15.49748601      15.43763079      15.39811124      15.36950699      15.35803059      15.35514271      15.35295276      15.35250391      15.35364128      15.35664823      15.35334966      15.32980404      15.28528541      15.25796081      15.26112412      15.27072545      15.28205870      15.29273185      15.30041324
        15.30503477      15.30917456      15.31659994      15.32721328      15.34388193      15.36765376      15.39169616      15.41147711      15.42600608      15.43871959      15.45115857      15.46288587      15.47443698      15.48687663      15.50272713      15.52088394      15.53731596      15.54261157      15.50873846      15.43143298
        15.35765995      15.31807213      15.30033405      15.28613204      15.27250418      15.25745612      15.25624767      15.26931657      15.28682334      15.30620773      15.32519226      15.34673713      15.36859690      15.38341651      15.39090492      15.39545266      15.39354895      15.37148938      15.34884513      15.34420291
        15.21986857      15.20741015      15.19420669      15.19273602      15.19959736      15.20668538      15.21336033      15.22216138      15.23407291      15.25066208      15.26992726      15.28962772      15.30805781      15.31989358      15.32807148      15.33319377      15.33964761      15.34709094      15.35591120      15.36931610
        15.38504409      15.40261525      15.42008474      15.43728928      15.44872838      15.44818369      15.44822560      15.44882925      15.44907388      15.45914386      15.48208835      15.51261796      15.54068580      15.56264915      15.58183060      15.60365293      15.63176251      15.66332739      15.69079593      15.68845045
        15.64445543      15.57304734      15.49904304      15.44993132      15.41405584      15.39400059      15.38729624      15.38433234      15.38494960      15.38698240      15.38939305      15.38801623      15.37304841      15.33354801      15.29499639      15.28920210      15.29643339      15.30574979      15.31520576      15.32283551
        15.32867652      15.33424209      15.34305049      15.35621934      15.37429511      15.39799408      15.42100733      15.43916893      15.45245334      15.46354024      15.47479809      15.48624839      15.49889431      15.51476172      15.53346432      15.55284336      15.56928379      15.57902491      15.56645287      15.51493575
        15.44670199      15.40154788      15.38101667      15.36389903      15.34760700      15.32557710      15.31191054      15.31826148      15.33386246      15.35370834      15.37369882      15.39517365      15.41841594      15.43720256      15.44825515      15.45467549      15.45904729      15.44798192      15.42479534      15.41498500
        15.25341982      15.24345007      15.22770814      15.22010178      15.22412662      15.23166211      15.23957389      15.25027861      15.26494422      15.28432138      15.30738022      15.33175199      15.35638505      15.37145407      15.37568330      15.37556930      15.37846808      15.38505458      15.39343216      15.40777264
        15.42699448      15.44710596      15.46622125      15.48526317      15.50224400      15.50792694      15.50992793      15.51382316      15.51571449      15.52345116      15.54352455      15.57254598      15.60061057      15.62218605      15.63944079      15.65601818      15.67658716      15.70015574      15.72469303      15.73397445
        15.70622276      15.63970972      15.55547318      15.49505054      15.45228483      15.42311111      15.41128030      15.40660806      15.40680434      15.40923236      15.41173947      15.41171798      15.40333636      15.37501517      15.33309740      15.31485894      15.31782330      15.32492493      15.33268650      15.33931872
        15.34522597      15.35167460      15.36143388      15.37602714      15.39527934      15.41967740      15.44392603      15.46208678      15.47473859      15.48481765      15.49486768      15.50551307      15.51778879      15.53437661      15.55504006      15.57603230      15.59331775      15.60508092      15.60509408      15.57850946
        15.52535969      15.47866325      15.45693476      15.44115323      15.42575910      15.40263621      15.37768296      15.37286655      15.38361474      15.40228135      15.42275026      15.44355130      15.46601905      15.48563146      15.49921183      15.50747589      15.51500285      15.51516960      15.49927486      15.48576758
        15.28314618      15.27689019      15.26298819      15.25101725      15.25045781      15.25734811      15.26631334      15.27879237      15.29569168      15.31692706      15.34243384      15.37006817      15.39857199      15.41737622      15.41975117      15.41438366      15.41246085      15.41677680      15.42303019      15.43611264
        15.46028133      15.48641555      15.50983859      15.53101719      15.55135176      15.56222833      15.56523135      15.57013142      15.57518881      15.58290397      15.59873092      15.62290102      15.64761674      15.66793999      15.68363495      15.69661375      15.71079042      15.72714361      15.74609835      15.75911674
        15.74595322      15.69339526      15.60775853      15.53570363      15.48640127      15.44802750      15.42939705      15.42258596      15.42165887      15.42370785      15.42614949      15.42706518      15.42287850      15.40641817      15.37061888      15.34121665      15.33669784      15.34086851      15.34678967      15.35228400
        15.35781903      15.36476045      15.37543244      15.39103532      15.41091845      15.43551437      15.46221152      15.48193752      15.49439825      15.50393523      15.51295654      15.52271156      15.53431743      15.54985095      15.57064661      15.59271641      15.61109844      15.62403993      15.62973109      15.62031087
        15.58758883      15.54679174      15.52408421      15.51184467      15.50067331      15.48285539      15.45316868      15.43566254      15.43825408      15.45349558      15.47337419      15.49278538      15.51307888      15.53116490      15.54512063      15.55463655      15.56306678      15.56986613      15.56459576      15.55341768
        15.30971013      15.30713295      15.29771956      15.28545886      15.28024584      15.28477083      15.29386353      15.30741631      15.32534277      15.34684088      15.37292257      15.40339320      15.43603550      15.46035562      15.46428801      15.45390579      15.44452513      15.44371916      15.44455828      15.45174609
        15.48574346      15.52184643      15.55145063      15.57441248      15.59428300      15.60736474      15.61160160      15.61578816      15.62261618      15.63195644      15.64460998      15.66241631      15.68197683      15.70016680      15.71467925      15.72555594      15.73533827      15.74621443      15.75950755      15.77049387
        15.76444459      15.72820933      15.65338670      15.57417082      15.51856203      15.47142177      15.44387391      15.43399443      15.43192908      15.43325791      15.43539390      15.43679169      15.43518248      15.42691972      15.40247321      15.36969374      15.35502359      15.35473687      15.35865307      15.36297495
        15.36844773      15.37595005      15.38756089      15.40396444      15.42392963      15.44771711      15.47660860      15.49927073      15.51237960      15.52156152      15.52978506      15.53880940      15.54979432      15.56391541      15.58301166      15.60492337      15.62459292      15.63908709      15.64786920      15.64821188
        15.63334997      15.60429737      15.58190589      15.57234560      15.56643604      15.55738647      15.53209390      15.50623161      15.49861587      15.50768640      15.52514957      15.54203631      15.55899513      15.57411160      15.58642334      15.59614396      15.60454499      15.61349483      15.61628354      15.61172854
        15.33386953      15.33436570      15.32946309      15.32020568      15.31302649      15.31424632      15.32209603      15.33566354      15.35369697      15.37482760      15.40105599      15.43534425      15.47510732      15.50867527      15.51830954      15.50334208      15.48120762      15.46906692      15.45684904      15.43928569
        15.49913828      15.55148063      15.58769045      15.61241143      15.62964223      15.64190050      15.64723148      15.65084160      15.65742092      15.66750655      15.67905054      15.69173324      15.70629617      15.72158487      15.73488032      15.74451480      15.75169818      15.75888392      15.76762327      15.77500019
        15.77065037      15.74660378      15.68943694      15.61130803      15.54950069      15.49501220      15.45735159      15.44284750      15.43933304      15.43995816      15.44156371      15.44305412      15.44280229      15.43889506      15.42533638      15.39803036      15.37530494      15.36822547      15.36902384      15.37167300
        15.37839257      15.38691379      15.39942009      15.41641775      15.43631098      15.45895499      15.48796840      15.51427091      15.52913971      15.53801060      15.54567691      15.55421150      15.56477724      15.57805414      15.59471353      15.61485393      15.63538447      15.65182323      15.66284839      15.66830695
        15.66518705      15.64946320      15.63096396      15.62247081      15.62034470      15.61915011      15.60438862      15.57873621      15.56231421      15.56298055      15.57580757      15.58909986      15.60204885      15.61388681      15.62370802      15.63264538      15.64074877      15.64978737      15.65663795      15.65795379
        15.35578591      15.35818826      15.35661659      15.35128769      15.34570118      15.34494876      15.35076728      15.36338253      15.38110791      15.40196165      15.42884556      15.46876290      15.51935749      15.56557688      15.58423259      15.56769297      15.53022869      15.49983855      15.46515830      15.35268535
        15.50611584      15.57917894      15.61825156      15.64265561      15.65692545      15.66666021      15.67228319      15.67615073      15.68192519      15.69124867      15.70241182      15.71249476      15.72320149      15.73544267      15.74734568      15.75633767      15.76230872      15.76734614      15.77278923      15.77657894
        15.77157139      15.75484300      15.71631534      15.64855202      15.58208350      15.52154223      15.47308006      15.45118199      15.44511540      15.44494593      15.44606010      15.44745157      15.44792313      15.44635353      15.43999185      15.42223629      15.39840296      15.38374066      15.37928689      15.37636597
        15.38922261      15.39939057      15.41252607      15.42958699      15.44904120      15.47051340      15.49776318      15.52695441      15.54471401      15.55356886      15.56076068      15.56898643      15.57946131      15.59230215      15.60686866      15.62420691      15.64444505      15.66294895      15.67602108      15.68418515
        15.68728084      15.68227577      15.67084790      15.66348236      15.66281361      15.66582858      15.66130078      15.64295560      15.62302643      15.61552995      15.62228530      15.63169016      15.64068809      15.64971072      15.65735534      15.66487566      15.67225326      15.68051728      15.68846818      15.69273087
        15.37620204      15.37912478      15.37961067      15.37736892      15.37478281      15.37454439      15.37903926      15.39011922      15.40692767      15.42707153      15.45382798      15.49802614      15.55979195      15.61860418      15.64910732      15.63959992      15.59686880      15.55625061      15.53712296      15.52426174
        15.57505942      15.61738723      15.64568676      15.66512472      15.67651030      15.68373133      15.68896407      15.69332868      15.69875020      15.70685841      15.71728044      15.72659975      15.73507443      15.74485950      15.75518343      15.76371307      15.76946307      15.77362115      15.77725136      15.77883621
        15.77352389      15.76132805      15.73770496      15.68439527      15.61672483      15.55107939      15.49339454      15.46177690      15.45088812      15.44922227      15.44979725      15.45094342      15.45174950      15.45137455      15.44868169      15.43939389      15.42155959      15.40451762      15.39739464      15.39856079
        15.40603445      15.41516668      15.42777997      15.44410388      15.46271582      15.48322644      15.50845859      15.53842028      15.55909950      15.56844956      15.57516436      15.58313396      15.59368945      15.60627778      15.61950712      15.63404546      15.65257053      15.67264461      15.68784178      15.69755835
        15.70350949      15.70495921      15.70086944      15.69614998      15.69563079      15.69948486      15.70103200      15.69190847      15.67475398      15.66197126      15.66232619      15.66814803      15.67382635      15.68047685      15.68664870      15.69285356      15.69923819      15.70643424      15.71419663      15.71924838
        15.39622686      15.39825259      15.39963830      15.39906153      15.39844616      15.39961270      15.40422223      15.41405622      15.42912362      15.44759180      15.47257473      15.51694073      15.58619821      15.65326175      15.69323293      15.69655605      15.66255445      15.61726271      15.60088767      15.60295354
        15.62555834      15.64865687      15.66646534      15.68013122      15.68924419      15.69509529      15.69995459      15.70472398      15.71028544      15.71762218      15.72703674      15.73609475      15.74370403      15.75187188      15.76092778      15.76920153      15.77533229      15.77955266      15.78275635      15.78347074
        15.77810759      15.76866677      15.75485927      15.71792519      15.65679065      15.58891568      15.52323840      15.47872288      15.45882373      15.45354042      15.45326569      15.45406323      15.45503632      15.45526419      15.45440193      15.45046663      15.44046996      15.42686755      15.41819204      15.41864049
        15.42433284      15.43275922      15.44471529      15.45996435      15.47742772      15.49702499      15.52063542      15.54959473      15.57227377      15.58283633      15.58919706      15.59681926      15.60737400      15.61976904      15.63213699      15.64459248      15.66057473      15.68111022      15.69847007      15.70926378
        15.71635091      15.72083872      15.72202705      15.72108136      15.72099488      15.72402603      15.72776353      15.72548351      15.71440269      15.70018374      15.69491547      15.69770375      15.70115572      15.70588913      15.71110383      15.71645634      15.72186475      15.72782732      15.73480205      15.73963523
        15.41712987      15.41621347      15.41664970      15.41607666      15.41581589      15.41753943      15.42279881      15.43279582      15.44610727      15.46184375      15.48260098      15.52021513      15.58768836      15.65691686      15.70226853      15.71952641      15.70602341      15.66658932      15.64639664      15.64615422
        15.65633384      15.66906331      15.67997922      15.68929842      15.69684782      15.70235674      15.70727389      15.71249809      15.71848335      15.72569907      15.73454876      15.74358030      15.75117715      15.75851640      15.76661504      15.77459495      15.78123628      15.78617037      15.79000964      15.79151542
        15.78747161      15.77992924      15.77161366      15.74890681      15.69958141      15.63368122      15.56289526      15.50602970      15.47267250      15.45945419      15.45706046      15.45737762      15.45827075      15.45889416      15.45913029      15.45836800      15.45462126      15.44715314      15.43977078      15.43876193
        15.44336391      15.45127120      15.46259920      15.47671712      15.49297775      15.51176554      15.53437951      15.56171260      15.58509327      15.59687185      15.60317514      15.61038477      15.62066827      15.63273505      15.64446216      15.65564864      15.66927760      15.68891729      15.70789764      15.71975331
        15.72729840      15.73306770      15.73724256      15.73964884      15.74072782      15.74264039      15.74625033      15.74736681      15.74222842      15.73003881      15.72087273      15.72086643      15.72308207      15.72645269      15.73082133      15.73563078      15.74050228      15.74551032      15.75160418      15.75608939
        15.43723023      15.43244493      15.43021483      15.42840133      15.42733710      15.42831798      15.43295659      15.44327144      15.45541471      15.46768694      15.48241139      15.50822689      15.56397742      15.63015363      15.67695439      15.70280751      15.71179275      15.69268635      15.67285553      15.66966985
        15.67361677      15.68070851      15.68767709      15.69423967      15.70081850      15.70666102      15.71219837      15.71831417      15.72515111      15.73288707      15.74186758      15.75120097      15.75920737      15.76622396      15.77356613      15.78137734      15.78864385      15.79465960      15.79977520      15.80331524
        15.80191369      15.79536338      15.78872645      15.77561309      15.74027253      15.68188056      15.60914575      15.54251919      15.49544137      15.46947806      15.46205738      15.46134259      15.46212348      15.46307921      15.46408074      15.46544364      15.46594573      15.46404998      15.46026456      15.45904876
        15.46286460      15.47021363      15.48089697      15.49400204      15.50922539      15.52737192      15.54932307      15.57488344      15.59789134      15.61071179      15.61735507      15.62425212      15.63404100      15.64550260      15.65665548      15.66711599      15.67923503      15.69694291      15.71629558      15.72931899
        15.73715036      15.74343803      15.74905441      15.75357390      15.75611716      15.75741177      15.75996981      15.76216314      15.76090522      15.75239125      15.74169122      15.73899726      15.74056325      15.74326979      15.74700507      15.75140647      15.75608622      15.76046672      15.76551315      15.76951130
        15.45412634      15.44625216      15.44017662      15.43591985      15.43304515      15.43235090      15.43484759      15.44343118      15.45453999      15.46353354      15.47204574      15.48530343      15.52218617      15.57977159      15.62671825      15.65605311      15.67980539      15.68969540      15.68118520      15.67859994
        15.68082697      15.68571722      15.69107749      15.69634995      15.70257144      15.70919769      15.71579178      15.72326346      15.73149439      15.74031156      15.75006067      15.76024973      15.76917645      15.77661600      15.78361074      15.79112495      15.79879465      15.80571914      15.81212632      15.81781662
        15.81982986      15.81446685      15.80670506      15.79718118      15.77142191      15.72356467      15.65532905      15.58442856      15.52822319      15.48785421      15.47038571      15.46694922      15.46751724      15.46861870      15.47024989      15.47325320      15.47672505      15.47882993      15.47890025      15.47905588
        15.48263011      15.48934146      15.49926737      15.51151117      15.52591606      15.54350592      15.56485342      15.58866365      15.61077285      15.62452315      15.63194527      15.63887558      15.64809375      15.65872282      15.66920279      15.67922530      15.69047376      15.70603021      15.72437442      15.73819758
        15.74631034      15.75280974      15.75905986      15.76457241      15.76823217      15.76953831      15.77100414      15.77311296      15.77367967      15.76900253      15.75918425      15.75410593      15.75498285      15.75746777      15.76080472      15.76468937      15.76910605      15.77315148      15.77714235      15.78045450
        15.46416429      15.45480892      15.44518964      15.43794686      15.43260371      15.42985474      15.42978985      15.43444948      15.44284619      15.44884623      15.45241738      15.45627783      15.47441218      15.51836162      15.56438635      15.59534616      15.62274433      15.65698014      15.67161850      15.67517040
        15.67949970      15.68540063      15.69132864      15.69658881      15.70287972      15.71072508      15.71888532      15.72814895      15.73837270      15.74884110      15.75984635      15.77123421      15.78124385      15.78940493      15.79649731      15.80384572      15.81196439      15.81961623      15.82680457      15.83376299