# File generated by Flopy version 3.5.0 on 02/29/2024 at 16:01:41.
BEGIN options
END options

BEGIN griddata
  icelltype
    CONSTANT  0
  k
    INTERNAL  FACTOR  1.0
    1.48160708E-04  8.35699459E-05  7.72356287E-04  8.83498255E-04  6.44295622E-04  6.52153241E-04  1.13575535E-04  6.85887756E-05  5.42046396E-05  2.00912175E-04  3.14469326E-04  7.97162414E-05  1.44845892E-04  1.15212663E-04  8.31076480E-05  1.38450182E-04  1.58874996E-04  4.86840534E-04       0.00144975  7.80528226E-04
    2.90495821E-04  6.52977353E-04  5.95717534E-04  2.72976055E-04  8.50622624E-05  6.18616419E-05  4.85271959E-05  1.76559544E-05  4.88975422E-05  1.21245670E-04  7.48912956E-05  2.13031705E-04  2.39335953E-04  9.13198893E-05  2.42018798E-04  6.28810373E-05  5.06141840E-05  6.21169593E-05  8.84862985E-05  3.95260872E-05
    5.70118627E-05  6.27940802E-05  8.68656129E-05  1.49659846E-04  1.98480069E-04  1.85661101E-04  3.10077944E-04  2.15404067E-04  2.92166634E-04  1.49627437E-04  1.33145274E-04  6.92865575E-04  2.52108023E-04  4.90469809E-04  2.52009307E-04  1.46137038E-04  9.39846885E-05  1.25973089E-04  3.94372352E-05  3.72356547E-05
    1.62120887E-04  7.34214616E-05  5.42854712E-04  7.93032349E-04  3.13480454E-04  2.17388344E-04  2.42976080E-04  4.83512911E-04  4.94426281E-04  2.57015916E-04  7.19432474E-05  1.69634930E-05  2.75702094E-05  3.04584337E-05  1.03916477E-05  3.81940297E-05  6.10085682E-05  1.09686592E-04  3.25732505E-04  2.22949695E-04
    4.23067528E-04  3.60174316E-04  1.58893465E-04  5.22198177E-04  2.74070119E-04  4.77197100E-04  3.31676014E-04  8.46551848E-05  8.66384911E-05  1.19118301E-04  4.78988977E-05  1.98870912E-05  9.42337848E-06  8.59532474E-06  2.33341575E-05  4.86402595E-05  1.03530688E-04  1.27413882E-04  7.10912324E-05  8.13643890E-05
    2.94779161E-04  9.43297952E-05  2.69967999E-04       0.00104124  4.64545324E-04  4.87912780E-04  2.66773714E-04  5.21666704E-05  7.87123588E-05  1.03855578E-04  1.60467787E-04  1.67048581E-04  1.18851770E-04  1.79774354E-04  8.45424384E-05  1.35566335E-04  3.43680403E-04  2.72337746E-04       0.00106739       0.00154453
    2.56775002E-04  5.67240315E-04  5.51895661E-04  4.40982684E-04  2.23464013E-04  2.90726440E-05  6.19741169E-05  1.02769259E-05  4.25430420E-05  9.27849112E-05  7.52672973E-05  1.19575060E-04  1.24116470E-04  1.13204816E-04  1.46445084E-04  9.72373986E-05  3.57193351E-05  6.27941390E-05  7.58373893E-05  6.33371508E-05
    6.01879801E-05  7.94491602E-05  8.37072039E-05  1.25734824E-04  1.61654538E-04  2.74084542E-04  3.50198224E-04  3.32473893E-04  1.71368913E-04  2.93018714E-04  1.60658079E-04  3.93712967E-04  4.76136079E-04  3.97384469E-04  2.80435912E-04  1.32974030E-04  1.03817288E-04  1.25945714E-04  5.51434672E-05  3.54393419E-05
    1.26699777E-04  8.90519818E-05  4.80550285E-04       0.00106590  8.23010952E-04  5.71293025E-04  2.19712888E-04  7.65504366E-04  7.59961099E-04  3.22583395E-04  1.15088967E-04  3.16484134E-05  4.26788069E-05  4.61573046E-05  1.68908689E-05  3.88915194E-05  5.15646346E-05  9.14378270E-05  1.53081602E-04  3.30079281E-04
    3.09729989E-04  5.39231699E-04  2.51331370E-04  2.09886355E-04  8.36466210E-04  2.38277227E-04  4.11126192E-04  2.86891687E-04  9.11168443E-05  1.11435370E-04  1.06910626E-04  3.54995641E-05  8.03696918E-06  8.66384932E-06  1.73478538E-05  2.85735205E-05  8.91533601E-05  1.33050462E-04  9.05685590E-05  8.24894854E-05
    2.12427761E-04  2.09451320E-04  1.83267190E-04  6.21317865E-04  3.75926304E-04  3.90739972E-04  2.52676422E-04  7.10993418E-05  8.07371217E-05  8.23625828E-05  1.37476331E-04  1.67641548E-04  1.12150508E-04  1.99192802E-04  1.47054268E-04  1.03859593E-04  4.24228548E-04  4.88963524E-04  5.00414773E-04       0.00194761
    4.79161072E-04  4.11282060E-04  7.40895885E-04  3.05835734E-04  5.18481779E-04  3.78139949E-05  2.53943233E-05  2.73868387E-05  1.73789667E-05  5.76349725E-05  6.29613420E-05  8.78675339E-05  1.03172147E-04  1.26674246E-04  7.67885114E-05  1.27824902E-04  5.30361270E-05  6.89545643E-05  4.37915731E-05  9.50872376E-05
    7.20509272E-05  7.49629185E-05  1.11217588E-04  1.34479540E-04  2.34461218E-04  2.67197051E-04  3.68701676E-04  4.91949331E-04  1.85551807E-04  2.55371326E-04  3.30193070E-04  2.35139897E-04  5.46693092E-04  3.53978029E-04  3.55591759E-04  1.43876819E-04  1.12775231E-04  1.04618454E-04  1.07403724E-04  5.33856678E-05
    8.36890532E-05  2.00082108E-04  3.17048901E-04       0.00107260  9.53507052E-04       0.00166244  6.56853910E-04  6.57594802E-04       0.00108066  3.35876630E-04  2.68065445E-04  7.19936389E-05  4.98568477E-05  7.94696080E-05  3.09310141E-05  3.90303561E-05  5.85145903E-05  7.26823597E-05  1.28169997E-04  1.73190727E-04
    3.40756105E-04  4.45606772E-04  5.34731591E-04  1.97062992E-04  8.68480013E-04  3.58898865E-04  2.26242790E-04  6.65642740E-04  2.00813708E-04  1.24337768E-04  1.03470005E-04  6.69123970E-05  1.48655999E-05  8.14242555E-06  1.23214196E-05  2.49101131E-05  6.54351789E-05  7.67984952E-05  1.24813246E-04  9.61574672E-05
    2.71216019E-04  2.82151497E-04  1.40334096E-04  3.17382638E-04  6.17807658E-04  1.87999193E-04  1.86245429E-04  1.03786468E-04  4.24592663E-05  1.12283471E-04  1.38951327E-04  1.43191202E-04  1.66053446E-04  1.48210482E-04  2.16591112E-04  1.31975887E-04  3.17649926E-04  7.93872859E-04  5.88321235E-04       0.00114509
    7.40157507E-04  4.43306756E-04  9.63829157E-04  4.05067268E-04  2.46172539E-04  9.50649349E-05  1.71211808E-05  3.59834883E-05  1.72757414E-05  3.41598064E-05  4.05262597E-05  5.31571605E-05  9.19460731E-05  1.49153145E-04  6.90465761E-05  1.42382485E-04  6.78374520E-05  5.49475353E-05  1.30183675E-04  3.68000496E-05
    1.18676161E-04  8.04012700E-05  8.30142894E-05  2.40399329E-04  3.71170810E-04  3.92726019E-04  3.80014022E-04  3.71486142E-04  4.76835768E-04  1.28309614E-04  4.03695485E-04  3.08180719E-04  3.97870399E-04  4.43915274E-04  2.02050298E-04  3.47253956E-04  1.00098430E-04  1.29794005E-04  1.82235643E-04  5.81537609E-05
    1.59278658E-04  2.73773894E-04  2.51279671E-04       0.00112766       0.00106356       0.00123517       0.00301146       0.00107045       0.00111594  5.72395969E-04  2.89787160E-04  2.15282666E-04  8.80909200E-05  9.67604565E-05  7.02919335E-05  4.00984327E-05  5.83721848E-05  7.20590650E-05  1.19640077E-04  1.43332840E-04
    2.08174030E-04  4.28825331E-04  8.10733217E-04  4.15472345E-04  5.17462863E-04  5.05734763E-04  4.11016518E-04  4.59380212E-04  2.74955555E-04  3.07238895E-04  6.93711805E-05  1.16787692E-04  3.12954374E-05  7.30155719E-06  1.57685252E-05  1.92636343E-05  5.22008691E-05  5.52727702E-05  1.02035829E-04  1.35255038E-04
    7.51879305E-04  4.12726264E-04  9.54776055E-05  2.39232491E-04  5.08170198E-04  1.34802207E-04  1.66369959E-04  5.97231623E-05  5.53461583E-05  7.52212856E-05  1.12958616E-04  2.04960569E-04  2.47435893E-04  2.17356933E-04  1.41202474E-04  2.10129039E-04  3.03175700E-04  8.01666243E-04  6.38610896E-04  8.91609764E-04
         0.00103458  3.92918001E-04  9.68327086E-04  7.41802591E-04  1.57077930E-04  1.28693554E-04  2.28449166E-05  2.02933178E-05  3.45536547E-05  2.59201397E-05  2.57011906E-05  3.30431247E-05  7.33243719E-05  7.06529897E-05  1.89520841E-04  1.14715152E-04  9.28043603E-05  6.76640132E-05  1.63186019E-04  7.16426817E-05
    5.45913395E-05  1.12351003E-04  1.06188093E-04  1.80961803E-04  6.04905443E-04  5.48499744E-04  8.05101432E-04  3.30717843E-04  3.88335587E-04  1.92870646E-04  1.95619956E-04  5.79837652E-04  2.34417132E-04  5.01064774E-04  2.54809956E-04  3.06208557E-04  1.45352591E-04  1.64506691E-04  2.21458525E-04  1.65761594E-04
    1.72284593E-04  2.54463244E-04  4.87091883E-04  6.27666047E-04       0.00179045       0.00100646       0.00280784       0.00311313       0.00141468       0.00130593  2.78483232E-04  3.64034547E-04  2.54121084E-04  1.12988335E-04  1.13336863E-04  7.16212513E-05  6.09212767E-05  8.47054005E-05  6.71214282E-05  2.07194699E-04
    1.87283139E-04  3.59899684E-04       0.00102641  5.99947193E-04  5.63347824E-04  6.55460098E-04  4.68457152E-04  5.36624795E-04  3.80080135E-04  2.08150376E-04  1.30529193E-04  1.16427803E-04  5.88812568E-05  1.44370446E-05  1.55482728E-05  1.76672821E-05  3.18494074E-05  7.00544132E-05  7.78050054E-05  1.63749545E-04
    5.65645892E-04  5.87640450E-04  2.38686937E-04  1.05201795E-04  3.13575824E-04  1.32682548E-04  9.29414112E-05  6.42847701E-05  4.07079217E-05  7.67617021E-05  9.03044497E-05  1.99568139E-04  3.91361020E-04  3.10815361E-04  2.27450959E-04  2.00433418E-04  2.40072870E-04  7.31622627E-04  5.59097731E-04  8.95875054E-04
    9.70756546E-04  5.88967406E-04  6.66835716E-04  7.17471763E-04  3.37083979E-04  9.05456479E-05  4.10054242E-05  1.41959621E-05  4.48592542E-05  2.36371655E-05  2.17494436E-05  2.31370429E-05  4.94445590E-05  5.49752158E-05  1.23684763E-04  1.65356829E-04  1.75591758E-04  1.34338716E-04  1.01531134E-04  1.68467466E-04
    4.19145460E-05  1.03129456E-04  1.11023816E-04  2.05956433E-04  4.97249928E-04  6.72921539E-04       0.00137503  6.89428725E-04  2.40905513E-04  2.37740117E-04  1.67284781E-04  3.86988853E-04  2.44324406E-04  4.37139424E-04  3.38720839E-04  3.06618527E-04  2.22107765E-04  1.03407571E-04  3.62017875E-04  5.43933646E-04
    1.91964363E-04  2.14473441E-04  8.21294773E-04  5.92354646E-04       0.00116560       0.00197441       0.00183029       0.00494233       0.00179404       0.00172221  8.49697557E-04  3.90521633E-04  4.64976082E-04  1.94264398E-04  1.33819530E-04  1.89460377E-04  8.67138114E-05  7.75600648E-05  9.03900986E-05  1.19920007E-04
    2.84705695E-04  4.14698219E-04  9.46198949E-04  7.07779115E-04  7.37786477E-04  8.23569281E-04  3.87059117E-04  6.88375823E-04  5.73722002E-04  1.41393521E-04  1.68987405E-04  9.42156941E-05  1.09940636E-04  4.29526018E-05  1.39481875E-05  1.98212521E-05  1.96906642E-05  7.56913886E-05  6.87972238E-05  1.44897109E-04
    3.29823800E-04  5.74317531E-04  3.49420300E-04  1.12577711E-04  1.38698003E-04  2.12840967E-04  3.43140735E-05  7.08245870E-05  4.09772273E-05  5.35719870E-05  1.66563707E-04  1.33599870E-04  3.84274202E-04  4.45470914E-04  3.91209205E-04  3.10711678E-04  1.58626853E-04  4.10533577E-04  6.64008355E-04  7.34058193E-04
    8.86316370E-04  7.37057741E-04  8.66121422E-04  5.60364320E-04  3.93129272E-04  1.05819357E-04  6.13757595E-05  2.38645320E-05  2.51638352E-05  2.48317479E-05  2.33617525E-05  2.11078580E-05  2.03603508E-05  9.07400365E-05  4.75101893E-05  2.11063692E-04  2.53435664E-04  2.26584657E-04  1.81222502E-04  1.44841310E-04
    6.30212505E-05  6.60034249E-05  9.52951802E-05  2.21676427E-04  4.70210153E-04  7.47153202E-04       0.00123134       0.00137154  3.99532090E-04  1.70831622E-04  1.83849936E-04  1.90167440E-04  2.83940179E-04  3.32012545E-04  3.04927880E-04  3.30146100E-04  3.77182002E-04  1.00165693E-04  2.59638052E-04  9.34464477E-04
    4.81231330E-04  2.62473190E-04  6.17961732E-04  8.20268608E-04  8.70264193E-04       0.00169942       0.00222759       0.00512568       0.00262887       0.00137406       0.00200028  8.24991063E-04  5.54129170E-04  3.72724596E-04  2.42100898E-04  2.39583734E-04  2.07658877E-04  8.86449144E-05  1.39059780E-04  1.30089926E-04
    1.87973434E-04  4.98621009E-04       0.00108043  8.67787752E-04  8.26951744E-04  5.87196572E-04  8.19806568E-04  5.74504768E-04  3.67199071E-04  2.87634225E-04  9.86810558E-05  1.36826558E-04  9.74400791E-05  8.98317909E-05  2.84152204E-05  1.73428195E-05  2.29954875E-05  3.82714219E-05  8.48003993E-05  1.07520686E-04
    4.91364485E-04  5.71409198E-04  1.89369531E-04  1.74109383E-04  1.06169622E-04  1.35811660E-04  5.79636738E-05  3.59407159E-05  4.23157463E-05  5.94777935E-05  1.62811326E-04  1.36261383E-04  4.91231980E-04  4.43660842E-04  4.15238625E-04  4.25233780E-04  1.92938243E-04  3.15047428E-04  3.83786031E-04  7.41540392E-04
    9.30510966E-04  7.80860263E-04       0.00112893  6.49725168E-04  3.65584589E-04  9.72183343E-05  9.92606507E-05  4.50867031E-05  1.37940295E-05  4.61116956E-05  1.45123568E-05  2.59487119E-05  1.57006273E-05  3.34236270E-05  8.48264601E-05  1.59901541E-04  2.23947563E-04  2.41660875E-04  3.93930532E-04  1.83252122E-04
    6.78355767E-05  4.56298843E-05  9.83530874E-05  1.28362259E-04  5.68489728E-04  5.99383909E-04       0.00176627       0.00175211  5.59527313E-04  1.86476671E-04  1.32604226E-04  1.80580551E-04  2.08576766E-04  1.64930614E-04  3.62978539E-04  3.03909604E-04  3.03330738E-04  3.03525189E-04  1.44207039E-04  6.08637611E-04
         0.00127267  4.23477123E-04  4.30565602E-04       0.00107862  9.14533203E-04  9.17878709E-04       0.00237343       0.00317996       0.00705882       0.00160282       0.00191572       0.00169388  8.80295549E-04  9.21484541E-04  3.37768643E-04  3.94962225E-04  2.45438128E-04  2.33294502E-04  1.49204324E-04  1.64919519E-04
    2.83299563E-04  2.73972460E-04  9.71397541E-04       0.00139223  6.07978195E-04  8.11602107E-04  9.48341877E-04  6.00105857E-04  2.83328366E-04  2.30899467E-04  1.14652436E-04  1.26120963E-04  1.11436060E-04  9.90680049E-05  6.05399484E-05  2.79967574E-05  1.81819257E-05  3.12550636E-05  1.02450154E-04  7.26166354E-05
    5.54057558E-04  4.38018148E-04  3.35738438E-04  1.18183673E-04  1.16963211E-04  5.59937758E-05  1.20962594E-04  4.38622198E-05  3.02950430E-05  5.28304592E-05  1.54893050E-04  1.58615313E-04  4.85967084E-04  7.19607989E-04  3.92572270E-04  3.78708682E-04  2.37426200E-04  3.22243986E-04  2.88476788E-04  6.58295103E-04
    8.30328904E-04       0.00103317       0.00113250  8.08542530E-04  3.79370305E-04  1.35795083E-04  8.24213363E-05  5.78497462E-05  2.96692251E-05  2.87820105E-05  2.34676637E-05  2.00025015E-05  1.79253226E-05  1.53329673E-05  6.64591415E-05  1.13131430E-04  3.14469116E-04  1.99341745E-04  3.62541211E-04  2.85559433E-04
    8.29539433E-05  5.07627420E-05  6.97548335E-05  1.04696426E-04  3.16083374E-04  7.09057744E-04       0.00175637       0.00266413  9.25918154E-04  1.24649668E-04  1.37163539E-04  1.55344339E-04  1.00086239E-04  1.67370410E-04  1.89849882E-04  3.78449572E-04  2.55928578E-04  3.48460418E-04  2.34425628E-04  3.94144576E-04
         0.00109748  5.11442836E-04  6.22699243E-04       0.00111826  7.39350495E-04  9.86229546E-04       0.00143328       0.00241437       0.00826403       0.00354090       0.00254439       0.00258180       0.00133632       0.00172485  5.60562123E-04  7.18959344E-04  2.88274572E-04  3.52542244E-04  2.19747822E-04  2.44627533E-04
    3.34719785E-04  3.23315063E-04  8.18250772E-04  6.61835922E-04       0.00105603       0.00104481  6.42796464E-04  8.18124802E-04  2.92319010E-04  1.41248562E-04  1.02283792E-04  8.85170820E-05  1.25579390E-04  1.34820475E-04  1.25915661E-04  2.57814475E-05  2.88299496E-05  3.10737283E-05  7.75005939E-05  1.11657845E-04
    5.77819333E-04  2.63464687E-04  6.33995746E-04  1.31187259E-04  7.70945021E-05  6.94212986E-05  6.38278348E-05  9.21738939E-05  3.96554318E-05  3.13148463E-05  1.52133183E-04  2.33018913E-04  2.87853481E-04       0.00110359  6.30704493E-04  5.16950651E-04  1.92024579E-04  1.95287750E-04  5.01900655E-04  5.06443223E-04
    6.99461545E-04       0.00109256       0.00134113       0.00107742  3.28504417E-04  2.01655730E-04  8.45905207E-05  6.60203474E-05  7.18100692E-05  1.43592608E-05  4.39015896E-05  2.26356217E-05  1.39842585E-05  1.50799539E-05  2.97274543E-05  5.80482451E-05  2.46703266E-04  3.61514235E-04  1.96521498E-04  3.88095257E-04
    1.05833824E-04  7.08826512E-05  5.29652722E-05  9.31119777E-05  2.05485592E-04  5.29714658E-04       0.00138720       0.00263037       0.00167921  2.44476393E-04  7.04483379E-05  1.05431931E-04  5.91846726E-05  1.62968935E-04  1.38205019E-04  2.06067358E-04  4.92295110E-04  2.34868461E-04  2.77119997E-04  4.06896811E-04
    5.46687644E-04  6.45173553E-04  5.99479703E-04       0.00110634  8.82465743E-04  8.60047446E-04       0.00170949       0.00180685       0.00462413       0.00874628       0.00280249       0.00660822       0.00213679       0.00162868       0.00143091  7.24443965E-04  6.03128730E-04  2.45411262E-04  5.30119303E-04  3.50896560E-04
    3.04899820E-04  4.57158534E-04  8.15074261E-04  5.27463501E-04  8.55848647E-04  8.58645244E-04  7.90956968E-04  7.65410112E-04  3.23583534E-04  1.09695761E-04  8.17040020E-05  6.28981807E-05  8.10394530E-05  1.94132147E-04  2.12711171E-04  5.14185166E-05  2.14513512E-05  5.21772800E-05  5.21589812E-05  1.17667346E-04
    3.94268319E-04  3.94773432E-04  3.57955395E-04  1.68115720E-04  8.14134381E-05  9.35531639E-05  4.07163134E-05  1.10377265E-04  4.62990516E-05  4.75718482E-05  1.01140932E-04  2.79359624E-04  3.45874153E-04  7.66549201E-04       0.00122380  6.14530853E-04  3.75906202E-04  1.43098212E-04  3.19542932E-04  7.40287119E-04
    4.53733035E-04       0.00132341       0.00170473  8.79906441E-04  6.40337912E-04  1.10176082E-04  1.74416995E-04  9.94134837E-05  5.52541550E-05  3.45794978E-05  1.94790882E-05  4.54334881E-05  1.38106103E-05  1.10234764E-05  2.22551290E-05  3.51469793E-05  8.24958406E-05  3.39283402E-04  2.42514772E-04  5.08324978E-04
    1.22678929E-04  8.22883543E-05  6.30731003E-05  7.10977519E-05  1.97527958E-04  2.45715120E-04       0.00112719       0.00157305       0.00196070  6.20788591E-04  9.63584735E-05  5.40452936E-05  3.86855579E-05  9.01819089E-05  1.14323416E-04  2.32948030E-04  3.00861215E-04  3.59265210E-04  3.14002610E-04  1.49656090E-04
    6.65134761E-04  5.33299247E-04  4.87421620E-04  9.34930907E-04       0.00114012       0.00135169       0.00135681       0.00239158       0.00318325       0.00799237       0.00724625       0.00323320       0.00905609       0.00219527       0.00175619       0.00111175  4.83087253E-04  5.36962749E-04  5.61936158E-04  4.71477390E-04
    5.66656288E-04  3.46920470E-04  7.44623526E-04  7.73889398E-04  5.42057753E-04  6.17261657E-04  7.93427205E-04  7.83959804E-04  2.70828897E-04  1.19615018E-04  7.41593803E-05  5.35262313E-05  5.11772854E-05  1.47913944E-04  2.32642057E-04  1.81789063E-04  1.96424772E-05  3.86572288E-05  7.38482546E-05  8.71105083E-05
    3.64303644E-04  4.95486483E-04  1.82766751E-04  2.75290703E-04  6.67563085E-05  6.58505504E-05  1.00141144E-04  6.86100625E-05  7.73628002E-05  4.09358494E-05  1.34131836E-04  2.68728834E-04  4.62230696E-04  8.10583037E-04       0.00108108  7.78121329E-04  6.35846491E-04  3.22838105E-04  1.78887748E-04  5.00570466E-04
    6.90314491E-04  9.51454600E-04       0.00199846       0.00108802  4.79981654E-04  1.94321154E-04  1.75700442E-04  1.06619638E-04  6.79517116E-05  6.80617315E-05  1.46117308E-05  2.87593458E-05  2.98252312E-05  9.25462886E-06  1.51911315E-05  3.25190361E-05  2.87517366E-05  1.97725968E-04  2.73009238E-04  3.44727352E-04
    3.41197473E-04  7.03572553E-05  1.09061238E-04  5.78772820E-05  1.19839920E-04  2.21128280E-04  5.35955942E-04       0.00108993       0.00158387  7.21181404E-04  2.46122706E-04  7.09930295E-05  2.67324840E-05  2.81977712E-05  1.12437732E-04  2.48903847E-04  1.96256945E-04  4.45050485E-04  3.57374017E-04  1.33393505E-04
    3.37561030E-04  4.39963013E-04  4.57332608E-04  8.67868353E-04       0.00127127       0.00172030       0.00221098       0.00193068       0.00416616       0.00524351       0.01104801       0.00359254       0.00639697       0.00667052       0.00239575       0.00149086  5.13760122E-04  8.31546354E-04  5.02806419E-04  7.28633751E-04
    7.03272400E-04  5.75696960E-04  4.66217491E-04  6.60715650E-04  4.77750280E-04  7.58250511E-04  6.35136559E-04  4.50819591E-04  4.06678696E-04  1.13187246E-04  5.68717584E-05  6.89245142E-05  3.71080991E-05  9.72371694E-05  2.30513190E-04  1.56999887E-04  5.34264594E-05  2.75590050E-05  7.63764528E-05  8.76829522E-05
    6.67730848E-04  2.96177512E-04  2.24540718E-04  2.58414459E-04  7.87875579E-05  4.65246173E-05  1.19912438E-04  9.63781139E-05  1.26509751E-04  3.05749829E-05  1.79013903E-04  2.95751729E-04  5.64861412E-04  8.37026001E-04       0.00107626       0.00115752  5.90550706E-04  6.07290947E-04  2.24994248E-04  5.21813439E-04
    6.09238825E-04  8.42037230E-04       0.00197310  9.66895005E-04  4.38089766E-04  2.44158048E-04  1.84221602E-04  1.22366364E-04  7.34316864E-05  7.03219201E-05  2.48953022E-05  2.01651377E-05  3.18765874E-05  1.41928776E-05  1.53451992E-05  1.50253864E-05  3.20675738E-05  7.97357062E-05  2.76642372E-04  1.70257376E-04
    3.34635772E-04  2.45369397E-04  9.21627062E-05  9.47508685E-05  7.12196007E-05  1.74146029E-04  3.08012598E-04  5.45962992E-04       0.00139438  7.44201145E-04  3.88327690E-04  1.15596417E-04  2.43899610E-05  3.14098520E-05  5.29638569E-05  1.40255656E-04  3.47973767E-04  2.74636664E-04  4.55619773E-04  2.68347880E-04
    1.35298548E-04  3.77160474E-04  3.84632809E-04  7.99158298E-04       0.00131648       0.00181459       0.00410937       0.00203601       0.00360878       0.00577924       0.00743034       0.00903851       0.00319848       0.00813119       0.00302867       0.00329702  8.31574331E-04  5.59900570E-04  7.53909849E-04  9.21756788E-04
    6.46350040E-04  7.17965083E-04  8.11030743E-04  2.82137240E-04  5.45124479E-04  7.31293260E-04  5.38829858E-04  5.60614547E-04  3.30057969E-04  1.24424879E-04  4.59988598E-05  5.23613996E-05  6.30464613E-05  4.54413599E-05  2.34769797E-04  1.07812406E-04  5.87203486E-05  5.67883638E-05  4.86605333E-05  9.65095339E-05
    4.07182726E-04  3.43298862E-04  2.83135588E-04  1.38869611E-04  1.59981751E-04  6.33902366E-05  8.44788313E-05  9.06039533E-05  1.58804832E-04  7.99349492E-05  7.64619419E-05  5.13387668E-04  5.12321579E-04  9.43353284E-04       0.00138577       0.00121027  8.72840191E-04  6.16355758E-04  3.16610870E-04  6.51724371E-04
    6.14003351E-04  8.88552741E-04       0.00189064  5.40657594E-04  3.71824164E-04  2.31626613E-04  1.64639898E-04  2.03145094E-04  7.70719416E-05  3.81027921E-05  5.10445969E-05  2.65112721E-05  2.77544834E-05  1.93327931E-05  1.55691301E-05  1.65124888E-05  1.77692053E-05  5.81424287E-05  1.85150266E-04  1.67076378E-04
    1.79567611E-04  3.01528791E-04  1.70930016E-04  1.65536491E-04  7.36786484E-05  1.25513328E-04  1.60200105E-04  3.30794269E-04  8.43402150E-04  8.02057219E-04  6.62694132E-04  1.08006411E-04  3.52147372E-05  4.65519682E-05  3.90292049E-05  1.07619738E-04  2.79464029E-04  4.17048536E-04  3.76761379E-04  4.13183554E-04
    1.66020666E-04  2.29489819E-04  4.50657934E-04  4.49259438E-04       0.00118673       0.00255319       0.00406001       0.00308278       0.00261430       0.00799653       0.00570849       0.00839855       0.00503800       0.00574350       0.00334374       0.00348122       0.00164694  5.89512517E-04       0.00108935  8.08523739E-04
         0.00100695  4.55285426E-04       0.00115460  3.60784828E-04  4.62517695E-04  5.28955378E-04  5.42565421E-04  6.62467836E-04  3.49832487E-04  1.29418638E-04  3.85439747E-05  3.74963383E-05  6.53569611E-05  4.36692103E-05  1.11520573E-04  1.65946480E-04  5.13411749E-05  6.12116836E-05  5.17664832E-05  9.98616775E-05
    2.79663571E-04  2.81678236E-04  2.09836656E-04  2.02686148E-04  1.39948164E-04  1.50287637E-04  7.56196011E-05  9.80485829E-05  8.53292496E-05  1.63257260E-04  8.14560560E-05  2.44840050E-04  9.86134060E-04       0.00101566       0.00139924       0.00159585  8.55245990E-04       0.00115574  3.83210361E-04  3.35682629E-04
         0.00101155  9.31717120E-04       0.00162206  5.03557108E-04  1.55444526E-04  1.94425974E-04  1.95120119E-04  1.69162798E-04  8.93187012E-05  5.14934212E-05  4.58966658E-05  2.88669439E-05  4.58296772E-05  2.47845289E-05  1.24045034E-05  2.72536916E-05  1.05112177E-05  3.84435540E-05  1.21883498E-04  2.05804515E-04
    1.29999078E-04  2.36307461E-04  2.20397720E-04  2.26910994E-04  1.63545160E-04  6.11361782E-05  2.07790040E-04  1.34753288E-04  4.65930698E-04  8.47666569E-04  5.32169745E-04  3.08641767E-04  4.67298977E-05  3.50201175E-05  6.02808561E-05  1.43317099E-04  2.35249709E-04  4.73252071E-04  5.00755463E-04  3.90115334E-04
    2.56303953E-04  2.28747855E-04  2.95592664E-04  5.52152295E-04  9.66092838E-04       0.00150296       0.00531549       0.00350887       0.00278002       0.00696406       0.00743024       0.00423288       0.00811203       0.00471216       0.00516114       0.00216016       0.00159654       0.00121537       0.00110800  8.63395994E-04
         0.00160668  5.94819456E-04  4.87913753E-04  7.40639215E-04  4.20606133E-04  5.93589105E-04  5.90690913E-04  3.64848995E-04  3.46676025E-04  2.41972372E-04  3.96576403E-05  2.34180399E-05  4.31426310E-05  5.85480916E-05  5.45762320E-05  1.77061557E-04  7.94675362E-05  6.08008201E-05  6.21612078E-05  7.31432527E-05
    1.93510711E-04  2.20363708E-04  1.21315748E-04  2.90771215E-04  1.53645682E-04  1.61427812E-04  1.36676032E-04  1.17797761E-04  7.08419041E-05  8.38043544E-05  1.24095604E-04  1.30209026E-04  9.50194117E-04       0.00138490       0.00184063       0.00152025       0.00119868       0.00108510  5.30908796E-04  3.22949669E-04
    6.87991424E-04  9.06145886E-04  9.34387440E-04       0.00101090  8.20074328E-05  1.09422298E-04  2.52318926E-04  8.62177182E-05  1.19388882E-04  6.69843642E-05  4.80591570E-05  3.47707884E-05  3.97225766E-05  4.74603417E-05  1.57671461E-05  1.73698037E-05  1.75166547E-05  2.01996752E-05  8.25686203E-05  1.80985577E-04
    1.32269184E-04  2.65306606E-04  2.68992378E-04  1.46642304E-04  2.62673485E-04  7.20673247E-05  1.70502316E-04  1.11678956E-04  2.25892393E-04  7.78325897E-04  4.15562524E-04  7.03277710E-04  8.66141026E-05  4.31195259E-05  9.17445440E-05  1.03068375E-04  4.99973130E-04  5.32187502E-04  5.24397028E-04  5.47067706E-04
    2.80831250E-04  2.03282389E-04  2.84757983E-04  5.89641157E-04       0.00115985  9.82982532E-04       0.00277850       0.00548198       0.00336615       0.00347067       0.01018637       0.00328048       0.00698814       0.00503471       0.00422547       0.00377462       0.00113373       0.00157671  7.93856506E-04       0.00188849
         0.00158266  9.25788907E-04  4.82537084E-04  4.38100442E-04  5.14902190E-04  9.91322263E-04  4.02593402E-04  3.58722496E-04  2.40480667E-04  2.43960939E-04  8.69768377E-05  2.00908840E-05  2.79507155E-05  4.78324713E-05  5.86223740E-05  8.82621702E-05  1.12310163E-04  1.11520783E-04  7.40971304E-05  6.12375501E-05
    1.61647253E-04  1.61626403E-04  1.41558822E-04  1.47031707E-04  1.95629724E-04  1.87166035E-04  2.15061103E-04  1.19911559E-04  8.94586654E-05  5.08270847E-05  1.12238787E-04  6.80656064E-05  5.55278848E-04       0.00147379       0.00215371       0.00235446       0.00111005       0.00108965  4.62173983E-04  4.21968511E-04
    5.53338691E-04  5.68030953E-04  6.99864900E-04  6.78160275E-04  1.77335307E-04  7.02882348E-05  1.36102489E-04  1.25677808E-04  7.74140653E-05  5.04740183E-05  5.70077432E-05  5.44394205E-05  4.62562887E-05  3.58622042E-05  3.21405670E-05  1.66665057E-05  1.71242156E-05  2.06532518E-05  4.11616655E-05  1.32769303E-04
    1.92240557E-04  2.12462417E-04  3.41546046E-04  1.51289587E-04  2.01686021E-04  1.22322190E-04  7.14493470E-05  2.13353711E-04  1.29002175E-04  5.24683543E-04  8.16345717E-04  4.78475808E-04  2.25990188E-04  8.88561153E-05  1.22845430E-04  1.02062557E-04  4.45583835E-04       0.00125555  5.23730730E-04  5.67126030E-04
    4.64841909E-04  1.62093739E-04  3.28672758E-04  4.76673242E-04       0.00101233       0.00164662       0.00135349       0.00390255       0.00374526       0.00295802       0.00590981       0.00387608       0.00405753       0.00949234       0.00187634       0.00626833       0.00180112       0.00100557       0.00127994       0.00163603
         0.00152377       0.00140773  5.35450046E-04  3.93424287E-04  5.77897671E-04  6.37746095E-04  6.23911948E-04  1.95632668E-04  4.26522037E-04  1.40845269E-04  9.52144785E-05  5.95336191E-05  1.71820948E-05  3.83564216E-05  4.67426544E-05  7.81232228E-05  1.11403635E-04  9.26898542E-05  1.77106484E-04  6.35241704E-05
    1.69382978E-04  8.68953643E-05  1.70610114E-04  1.03039263E-04  1.49848893E-04  2.51363884E-04  2.40832850E-04  1.43300331E-04  9.52494357E-05  4.05871198E-05  9.16129709E-05  4.53845050E-05  1.56377146E-04       0.00155333       0.00114945       0.00371870       0.00121906       0.00112004  5.80497900E-04  2.46252395E-04
    4.39076962E-04  7.15625908E-04  6.34020416E-04  2.25637701E-04  3.21456015E-04  8.51090893E-05  8.66816682E-05  1.71522715E-04  4.79221971E-05  3.95774362E-05  3.52007242E-05  6.21449995E-05  7.78624357E-05  3.86276484E-05  3.76089846E-05  2.30727221E-05  1.76236662E-05  1.76575806E-05  2.48759513E-05  1.16689342E-04
    1.34122655E-04  3.19821041E-04  1.90261753E-04  2.39528273E-04  2.68549457E-04  8.98287105E-05  7.14091387E-05  1.47453465E-04  2.17539038E-04  2.87167223E-04       0.00104844  7.82837422E-04  3.59955924E-04  1.40446214E-04  1.20621241E-04  2.35880128E-04  3.65357918E-04       0.00123703  9.12095199E-04  5.13535893E-04
    6.08921738E-04  3.42717795E-04  1.89627959E-04  5.52203055E-04  6.76612930E-04       0.00169052       0.00164023       0.00169044       0.00393030       0.00231908       0.00358593       0.00356246       0.00243065       0.01456061       0.00216468       0.00341267       0.00324529  9.34901208E-04       0.00281043  8.96741601E-04
         0.00136916       0.00125566  6.63730070E-04  3.93900970E-04  7.38891244E-04  4.74329355E-04  6.65487733E-04  1.75964046E-04  2.39140663E-04  2.72762115E-04  1.00834589E-04  6.16043304E-05  3.42994074E-05  2.45026530E-05  3.79063411E-05  8.71077576E-05  8.60526211E-05  9.97947292E-05  1.23180632E-04  1.83343985E-04
    2.10129249E-04  1.02977833E-04  4.94910493E-05  1.96011900E-04  1.24011529E-04  1.63569425E-04  3.00798894E-04  1.75953846E-04  1.01367907E-04  3.19773786E-05  3.70414168E-05  7.04623577E-05  5.16215948E-05  5.92532135E-04  8.50357192E-04       0.00181763       0.00248842  9.88393384E-04  7.59970681E-04  2.23049170E-04