# File generated by Flopy version 3.5.0 on 02/28/2024 at 08:51:16.
BEGIN options
  PRINT_OPTION  summary
  COMPLEXITY  complex
END options

BEGIN linear
  LINEAR_ACCELERATION  bicgstab
END linear

