# File generated by Flopy version 3.5.0 on 02/28/2024 at 08:52:36.
BEGIN options
END options

BEGIN dimensions
  MAXBOUND  5
END dimensions

BEGIN period  1
  1 1120 0.00000000E+00
  1 1160 0.00000000E+00
  1 3120 0.00000000E+00
  1 3180 -2.50000000E-05
  1 4170 -2.50000000E-04
END period  1

BEGIN period  2
  1 1120 0.00000000E+00
  1 1160 0.00000000E+00
  1 3120 0.00000000E+00
  1 3180 -2.50000000E-05
  1 4170 -2.50000000E-04
END period  2

BEGIN period  3
  1 1120 0.00000000E+00
  1 1160 0.00000000E+00
  1 3120 0.00000000E+00
  1 3180 -2.50000000E-05
  1 4170 -2.50000000E-04
END period  3

BEGIN period  4
  1 1120 0.00000000E+00
  1 1160 0.00000000E+00
  1 3120 0.00000000E+00
  1 3180 -2.50000000E-05
  1 4170 -2.50000000E-04
END period  4

BEGIN period  5
  1 1120 0.00000000E+00
  1 1160 0.00000000E+00
  1 3120 0.00000000E+00
  1 3180 -2.50000000E-05
  1 4170 -2.50000000E-04
END period  5

BEGIN period  6
  1 1120 0.00000000E+00
  1 1160 0.00000000E+00
  1 3120 0.00000000E+00
  1 3180 -2.50000000E-05
  1 4170 -2.50000000E-04
END period  6

BEGIN period  7
  1 1120 0.00000000E+00
  1 1160 0.00000000E+00
  1 3120 0.00000000E+00
  1 3180 -2.50000000E-05
  1 4170 -2.50000000E-04
END period  7

BEGIN period  8
  1 1120 0.00000000E+00
  1 1160 0.00000000E+00
  1 3120 0.00000000E+00
  1 3180 -2.50000000E-05
  1 4170 -2.50000000E-04
END period  8

BEGIN period  9
  1 1120 0.00000000E+00
  1 1160 0.00000000E+00
  1 3120 0.00000000E+00
  1 3180 -2.50000000E-05
  1 4170 -2.50000000E-04
END period  9

BEGIN period  10
  1 1120 0.00000000E+00
  1 1160 0.00000000E+00
  1 3120 0.00000000E+00
  1 3180 -2.50000000E-05
  1 4170 -2.50000000E-04
END period  10

BEGIN period  11
  1 1120 0.00000000E+00
  1 1160 0.00000000E+00
  1 3120 0.00000000E+00
  1 3180 -2.50000000E-05
  1 4170 -2.50000000E-04
END period  11

BEGIN period  12
  1 1120 0.00000000E+00
  1 1160 0.00000000E+00
  1 3120 0.00000000E+00
  1 3180 -2.50000000E-05
  1 4170 -2.50000000E-04
END period  12

BEGIN period  13
  1 1120 0.00000000E+00
  1 1160 0.00000000E+00
  1 3120 0.00000000E+00
  1 3180 -2.50000000E-05
  1 4170 -2.50000000E-04
END period  13

BEGIN period  14
  1 1120 0.00000000E+00
  1 1160 0.00000000E+00
  1 3120 0.00000000E+00
  1 3180 -2.50000000E-05
  1 4170 -2.50000000E-04
END period  14

BEGIN period  15
  1 1120 0.00000000E+00
  1 1160 0.00000000E+00
  1 3120 0.00000000E+00
  1 3180 -2.50000000E-05
  1 4170 -2.50000000E-04
END period  15

BEGIN period  16
  1 1120 0.00000000E+00
  1 1160 0.00000000E+00
  1 3120 0.00000000E+00
  1 3180 -2.50000000E-05
  1 4170 -2.50000000E-04
END period  16

BEGIN period  17
  1 1120 0.00000000E+00
  1 1160 0.00000000E+00
  1 3120 0.00000000E+00
  1 3180 -2.50000000E-05
  1 4170 -2.50000000E-04
END period  17

BEGIN period  18
  1 1120 0.00000000E+00
  1 1160 0.00000000E+00
  1 3120 0.00000000E+00
  1 3180 -2.50000000E-05
  1 4170 -2.50000000E-04
END period  18

BEGIN period  19
  1 1120 0.00000000E+00
  1 1160 0.00000000E+00
  1 3120 0.00000000E+00
  1 3180 -2.50000000E-05
  1 4170 -2.50000000E-04
END period  19

BEGIN period  20
  1 1120 0.00000000E+00
  1 1160 0.00000000E+00
  1 3120 0.00000000E+00
  1 3180 -2.50000000E-05
  1 4170 -2.50000000E-04
END period  20

BEGIN period  21
  1 1120 0.00000000E+00
  1 1160 0.00000000E+00
  1 3120 0.00000000E+00
  1 3180 -2.50000000E-05
  1 4170 -2.50000000E-04
END period  21

BEGIN period  22
  1 1120 0.00000000E+00
  1 1160 0.00000000E+00
  1 3120 0.00000000E+00
  1 3180 -2.50000000E-05
  1 4170 -2.50000000E-04
END period  22

BEGIN period  23
  1 1120 0.00000000E+00
  1 1160 0.00000000E+00
  1 3120 0.00000000E+00
  1 3180 -2.50000000E-05
  1 4170 -2.50000000E-04
END period  23

BEGIN period  24
  1 1120 0.00000000E+00
  1 1160 0.00000000E+00
  1 3120 0.00000000E+00
  1 3180 -2.50000000E-05
  1 4170 -2.50000000E-04
END period  24

BEGIN period  25
  1 1120 0.00000000E+00
  1 1160 0.00000000E+00
  1 3120 0.00000000E+00
  1 3180 -2.50000000E-05
  1 4170 -2.50000000E-04
END period  25

BEGIN period  26
  1 1120 0.00000000E+00
  1 1160 0.00000000E+00
  1 3120 0.00000000E+00
  1 3180 -2.50000000E-05
  1 4170 -2.50000000E-04
END period  26

BEGIN period  27
  1 1120 0.00000000E+00
  1 1160 0.00000000E+00
  1 3120 0.00000000E+00
  1 3180 -2.50000000E-05
  1 4170 -2.50000000E-04
END period  27

BEGIN period  28
  1 1120 0.00000000E+00
  1 1160 0.00000000E+00
  1 3120 0.00000000E+00
  1 3180 -2.50000000E-05
  1 4170 -2.50000000E-04
END period  28

BEGIN period  29
  1 1120 0.00000000E+00
  1 1160 0.00000000E+00
  1 3120 0.00000000E+00
  1 3180 -2.50000000E-05
  1 4170 -2.50000000E-04
END period  29

BEGIN period  30
  1 1120 0.00000000E+00
  1 1160 0.00000000E+00
  1 3120 0.00000000E+00
  1 3180 -2.50000000E-05
  1 4170 -2.50000000E-04
END period  30

BEGIN period  31
  1 1120 0.00000000E+00
  1 1160 0.00000000E+00
  1 3120 0.00000000E+00
  1 3180 -2.50000000E-05
  1 4170 -2.50000000E-04
END period  31

BEGIN period  32
  1 1120 0.00000000E+00
  1 1160 0.00000000E+00
  1 3120 0.00000000E+00
  1 3180 -2.50000000E-05
  1 4170 -2.50000000E-04
END period  32

BEGIN period  33
  1 1120 0.00000000E+00
  1 1160 0.00000000E+00
  1 3120 0.00000000E+00
  1 3180 -2.50000000E-05
  1 4170 -2.50000000E-04
END period  33

BEGIN period  34
  1 1120 0.00000000E+00
  1 1160 0.00000000E+00
  1 3120 0.00000000E+00
  1 3180 -2.50000000E-05
  1 4170 -2.50000000E-04
END period  34

BEGIN period  35
  1 1120 0.00000000E+00
  1 1160 0.00000000E+00
  1 3120 0.00000000E+00
  1 3180 -2.50000000E-05
  1 4170 -2.50000000E-04
END period  35

BEGIN period  36
  1 1120 0.00000000E+00
  1 1160 0.00000000E+00
  1 3120 0.00000000E+00
  1 3180 -2.50000000E-05
  1 4170 -2.50000000E-04
END period  36

BEGIN period  37
  1 1120 0.00000000E+00
  1 1160 0.00000000E+00
  1 3120 0.00000000E+00
  1 3180 -2.50000000E-05
  1 4170 -2.50000000E-04
END period  37

BEGIN period  38
  1 1120 0.00000000E+00
  1 1160 0.00000000E+00
  1 3120 0.00000000E+00
  1 3180 -2.50000000E-05
  1 4170 -2.50000000E-04
END period  38

BEGIN period  39
  1 1120 0.00000000E+00
  1 1160 0.00000000E+00
  1 3120 0.00000000E+00
  1 3180 -2.50000000E-05
  1 4170 -2.50000000E-04
END period  39

BEGIN period  40
  1 1120 0.00000000E+00
  1 1160 0.00000000E+00
  1 3120 0.00000000E+00
  1 3180 -2.50000000E-05
  1 4170 -2.50000000E-04
END period  40

BEGIN period  41
  1 1120 0.00000000E+00
  1 1160 0.00000000E+00
  1 3120 0.00000000E+00
  1 3180 -2.50000000E-05
  1 4170 -2.50000000E-04
END period  41

BEGIN period  42
  1 1120 0.00000000E+00
  1 1160 0.00000000E+00
  1 3120 0.00000000E+00
  1 3180 -2.50000000E-05
  1 4170 -2.50000000E-04
END period  42

BEGIN period  43
  1 1120 0.00000000E+00
  1 1160 0.00000000E+00
  1 3120 0.00000000E+00
  1 3180 -2.50000000E-05
  1 4170 -2.50000000E-04
END period  43

BEGIN period  44
  1 1120 0.00000000E+00
  1 1160 0.00000000E+00
  1 3120 0.00000000E+00
  1 3180 -2.50000000E-05
  1 4170 -2.50000000E-04
END period  44

BEGIN period  45
  1 1120 0.00000000E+00
  1 1160 0.00000000E+00
  1 3120 0.00000000E+00
  1 3180 -2.50000000E-05
  1 4170 -2.50000000E-04
END period  45

BEGIN period  46
  1 1120 0.00000000E+00
  1 1160 0.00000000E+00
  1 3120 0.00000000E+00
  1 3180 -2.50000000E-05
  1 4170 -2.50000000E-04
END period  46

BEGIN period  47
  1 1120 0.00000000E+00
  1 1160 0.00000000E+00
  1 3120 0.00000000E+00
  1 3180 -2.50000000E-05
  1 4170 -2.50000000E-04
END period  47

BEGIN period  48
  1 1120 0.00000000E+00
  1 1160 0.00000000E+00
  1 3120 0.00000000E+00
  1 3180 -2.50000000E-05
  1 4170 -2.50000000E-04
END period  48

BEGIN period  49
  1 1120 0.00000000E+00
  1 1160 0.00000000E+00
  1 3120 0.00000000E+00
  1 3180 -2.50000000E-05
  1 4170 -2.50000000E-04
END period  49

BEGIN period  50
  1 1120 0.00000000E+00
  1 1160 0.00000000E+00
  1 3120 0.00000000E+00
  1 3180 -2.50000000E-05
  1 4170 -2.50000000E-04
END period  50

BEGIN period  51
  1 1120 0.00000000E+00
  1 1160 0.00000000E+00
  1 3120 0.00000000E+00
  1 3180 -2.50000000E-05
  1 4170 -2.50000000E-04
END period  51

BEGIN period  52
  1 1120 0.00000000E+00
  1 1160 0.00000000E+00
  1 3120 0.00000000E+00
  1 3180 -2.50000000E-05
  1 4170 -2.50000000E-04
END period  52

BEGIN period  53
  1 1120 0.00000000E+00
  1 1160 0.00000000E+00
  1 3120 0.00000000E+00
  1 3180 -2.50000000E-05
  1 4170 -2.50000000E-04
END period  53

BEGIN period  54
  1 1120 0.00000000E+00
  1 1160 0.00000000E+00
  1 3120 0.00000000E+00
  1 3180 -2.50000000E-05
  1 4170 -2.50000000E-04
END period  54

BEGIN period  55
  1 1120 0.00000000E+00
  1 1160 0.00000000E+00
  1 3120 0.00000000E+00
  1 3180 -2.50000000E-05
  1 4170 -2.50000000E-04
END period  55

BEGIN period  56
  1 1120 0.00000000E+00
  1 1160 0.00000000E+00
  1 3120 0.00000000E+00
  1 3180 -2.50000000E-05
  1 4170 -2.50000000E-04
END period  56

BEGIN period  57
  1 1120 0.00000000E+00
  1 1160 0.00000000E+00
  1 3120 0.00000000E+00
  1 3180 -2.50000000E-05
  1 4170 -2.50000000E-04
END period  57

BEGIN period  58
  1 1120 0.00000000E+00
  1 1160 0.00000000E+00
  1 3120 0.00000000E+00
  1 3180 -2.50000000E-05
  1 4170 -2.50000000E-04
END period  58

BEGIN period  59
  1 1120 0.00000000E+00
  1 1160 0.00000000E+00
  1 3120 0.00000000E+00
  1 3180 -2.50000000E-05
  1 4170 -2.50000000E-04
END period  59

BEGIN period  60
  1 1120 0.00000000E+00
  1 1160 0.00000000E+00
  1 3120 0.00000000E+00
  1 3180 -2.50000000E-05
  1 4170 -2.50000000E-04
END period  60

BEGIN period  61
  1 1120 0.00000000E+00
  1 1160 0.00000000E+00
  1 3120 0.00000000E+00
  1 3180 -2.50000000E-05
  1 4170 -2.50000000E-04
END period  61

BEGIN period  62
  1 1120 0.00000000E+00
  1 1160 0.00000000E+00
  1 3120 0.00000000E+00
  1 3180 -2.50000000E-05
  1 4170 -2.50000000E-04
END period  62

BEGIN period  63
  1 1120 0.00000000E+00
  1 1160 0.00000000E+00
  1 3120 0.00000000E+00
  1 3180 -2.50000000E-05
  1 4170 -2.50000000E-04
END period  63

BEGIN period  64
  1 1120 0.00000000E+00
  1 1160 0.00000000E+00
  1 3120 0.00000000E+00
  1 3180 -2.50000000E-05
  1 4170 -2.50000000E-04
END period  64

BEGIN period  65
  1 1120 0.00000000E+00
  1 1160 0.00000000E+00
  1 3120 0.00000000E+00
  1 3180 -2.50000000E-05
  1 4170 -2.50000000E-04
END period  65

BEGIN period  66
  1 1120 0.00000000E+00
  1 1160 0.00000000E+00
  1 3120 0.00000000E+00
  1 3180 -2.50000000E-05
  1 4170 -2.50000000E-04
END period  66

BEGIN period  67
  1 1120 0.00000000E+00
  1 1160 0.00000000E+00
  1 3120 0.00000000E+00
  1 3180 -2.50000000E-05
  1 4170 -2.50000000E-04
END period  67

BEGIN period  68
  1 1120 0.00000000E+00
  1 1160 0.00000000E+00
  1 3120 0.00000000E+00
  1 3180 -2.50000000E-05
  1 4170 -2.50000000E-04
END period  68

BEGIN period  69
  1 1120 0.00000000E+00
  1 1160 0.00000000E+00
  1 3120 0.00000000E+00
  1 3180 -2.50000000E-05
  1 4170 -2.50000000E-04
END period  69

BEGIN period  70
  1 1120 0.00000000E+00
  1 1160 0.00000000E+00
  1 3120 0.00000000E+00
  1 3180 -2.50000000E-05
  1 4170 -2.50000000E-04
END period  70

BEGIN period  71
  1 1120 0.00000000E+00
  1 1160 0.00000000E+00
  1 3120 0.00000000E+00
  1 3180 -2.50000000E-05
  1 4170 -2.50000000E-04
END period  71

BEGIN period  72
  1 1120 0.00000000E+00
  1 1160 0.00000000E+00
  1 3120 0.00000000E+00
  1 3180 -2.50000000E-05
  1 4170 -2.50000000E-04
END period  72

BEGIN period  73
  1 1120 0.00000000E+00
  1 1160 0.00000000E+00
  1 3120 0.00000000E+00
  1 3180 -2.50000000E-05
  1 4170 -2.50000000E-04
END period  73

BEGIN period  74
  1 1120 0.00000000E+00
  1 1160 0.00000000E+00
  1 3120 0.00000000E+00
  1 3180 -2.50000000E-05
  1 4170 -2.50000000E-04
END period  74

BEGIN period  75
  1 1120 0.00000000E+00
  1 1160 0.00000000E+00
  1 3120 0.00000000E+00
  1 3180 -2.50000000E-05
  1 4170 -2.50000000E-04
END period  75

BEGIN period  76
  1 1120 0.00000000E+00
  1 1160 0.00000000E+00
  1 3120 0.00000000E+00
  1 3180 -2.50000000E-05
  1 4170 -2.50000000E-04
END period  76

BEGIN period  77
  1 1120 0.00000000E+00
  1 1160 0.00000000E+00
  1 3120 0.00000000E+00
  1 3180 -2.50000000E-05
  1 4170 -2.50000000E-04
END period  77

BEGIN period  78
  1 1120 0.00000000E+00
  1 1160 0.00000000E+00
  1 3120 0.00000000E+00
  1 3180 -2.50000000E-05
  1 4170 -2.50000000E-04
END period  78

BEGIN period  79
  1 1120 0.00000000E+00
  1 1160 0.00000000E+00
  1 3120 0.00000000E+00
  1 3180 -2.50000000E-05
  1 4170 -2.50000000E-04
END period  79

BEGIN period  80
  1 1120 0.00000000E+00
  1 1160 0.00000000E+00
  1 3120 0.00000000E+00
  1 3180 -2.50000000E-05
  1 4170 -2.50000000E-04
END period  80

BEGIN period  81
  1 1120 -2.50000000E-03
  1 1160 0.00000000E+00
  1 3120 0.00000000E+00
  1 3180 -2.50000000E-05
  1 4170 -2.50000000E-04
END period  81

BEGIN period  82
  1 1120 -2.50000000E-03
  1 1160 0.00000000E+00
  1 3120 0.00000000E+00
  1 3180 -2.50000000E-05
  1 4170 -2.50000000E-04
END period  82

BEGIN period  83
  1 1120 -2.50000000E-03
  1 1160 0.00000000E+00
  1 3120 0.00000000E+00
  1 3180 -2.50000000E-05
  1 4170 -2.50000000E-04
END period  83

BEGIN period  84
  1 1120 -2.50000000E-03
  1 1160 0.00000000E+00
  1 3120 0.00000000E+00
  1 3180 -2.50000000E-05
  1 4170 -2.50000000E-04
END period  84

BEGIN period  85
  1 1120 -2.50000000E-03
  1 1160 0.00000000E+00
  1 3120 0.00000000E+00
  1 3180 -2.50000000E-05
  1 4170 -2.50000000E-04
END period  85

BEGIN period  86
  1 1120 -2.50000000E-03
  1 1160 0.00000000E+00
  1 3120 0.00000000E+00
  1 3180 -2.50000000E-05
  1 4170 -2.50000000E-04
END period  86

BEGIN period  87
  1 1120 -2.50000000E-03
  1 1160 0.00000000E+00
  1 3120 0.00000000E+00
  1 3180 -2.50000000E-05
  1 4170 -2.50000000E-04
END period  87

BEGIN period  88
  1 1120 -2.50000000E-03
  1 1160 0.00000000E+00
  1 3120 0.00000000E+00
  1 3180 -2.50000000E-05
  1 4170 -2.50000000E-04
END period  88

BEGIN period  89
  1 1120 -2.50000000E-03
  1 1160 0.00000000E+00
  1 3120 0.00000000E+00
  1 3180 -2.50000000E-05
  1 4170 -2.50000000E-04
END period  89

BEGIN period  90
  1 1120 -2.50000000E-03
  1 1160 0.00000000E+00
  1 3120 0.00000000E+00
  1 3180 -2.50000000E-05
  1 4170 -2.50000000E-04
END period  90

BEGIN period  91
  1 1120 -2.50000000E-03
  1 1160 0.00000000E+00
  1 3120 0.00000000E+00
  1 3180 -2.50000000E-05
  1 4170 -2.50000000E-04
END period  91

BEGIN period  92
  1 1120 -2.50000000E-03
  1 1160 0.00000000E+00
  1 3120 0.00000000E+00
  1 3180 -2.50000000E-05
  1 4170 -2.50000000E-04
END period  92

BEGIN period  93
  1 1120 -2.50000000E-03
  1 1160 0.00000000E+00
  1 3120 0.00000000E+00
  1 3180 -2.50000000E-05
  1 4170 -2.50000000E-04
END period  93

BEGIN period  94
  1 1120 -2.50000000E-03
  1 1160 0.00000000E+00
  1 3120 0.00000000E+00
  1 3180 -2.50000000E-05
  1 4170 -2.50000000E-04
END period  94

BEGIN period  95
  1 1120 -2.50000000E-03
  1 1160 0.00000000E+00
  1 3120 0.00000000E+00
  1 3180 -2.50000000E-05
  1 4170 -2.50000000E-04
END period  95

BEGIN period  96
  1 1120 -2.50000000E-03
  1 1160 0.00000000E+00
  1 3120 0.00000000E+00
  1 3180 -2.50000000E-05
  1 4170 -2.50000000E-04
END period  96

BEGIN period  97
  1 1120 -2.50000000E-03
  1 1160 0.00000000E+00
  1 3120 0.00000000E+00
  1 3180 -2.50000000E-05
  1 4170 -2.50000000E-04
END period  97

BEGIN period  98
  1 1120 -2.50000000E-03
  1 1160 0.00000000E+00
  1 3120 0.00000000E+00
  1 3180 -2.50000000E-05
  1 4170 -2.50000000E-04
END period  98

BEGIN period  99
  1 1120 -2.50000000E-03
  1 1160 0.00000000E+00
  1 3120 0.00000000E+00
  1 3180 -2.50000000E-05
  1 4170 -2.50000000E-04
END period  99

BEGIN period  100
  1 1120 -2.50000000E-03
  1 1160 0.00000000E+00
  1 3120 0.00000000E+00
  1 3180 -2.50000000E-05
  1 4170 -2.50000000E-04
END period  100

BEGIN period  101
  1 1120 -2.50000000E-03
  1 1160 0.00000000E+00
  1 3120 0.00000000E+00
  1 3180 -2.50000000E-05
  1 4170 -2.50000000E-04
END period  101

BEGIN period  102
  1 1120 -2.50000000E-03
  1 1160 0.00000000E+00
  1 3120 0.00000000E+00
  1 3180 -2.50000000E-05
  1 4170 -2.50000000E-04
END period  102

BEGIN period  103
  1 1120 -2.50000000E-03
  1 1160 0.00000000E+00
  1 3120 0.00000000E+00
  1 3180 -2.50000000E-05
  1 4170 -2.50000000E-04
END period  103

BEGIN period  104
  1 1120 -2.50000000E-03
  1 1160 0.00000000E+00
  1 3120 0.00000000E+00
  1 3180 -2.50000000E-05
  1 4170 -2.50000000E-04
END period  104

BEGIN period  105
  1 1120 -2.50000000E-03
  1 1160 0.00000000E+00
  1 3120 0.00000000E+00
  1 3180 -2.50000000E-05
  1 4170 -2.50000000E-04
END period  105

BEGIN period  106
  1 1120 -2.50000000E-03
  1 1160 0.00000000E+00
  1 3120 0.00000000E+00
  1 3180 -2.50000000E-05
  1 4170 -2.50000000E-04
END period  106

BEGIN period  107
  1 1120 -2.50000000E-03
  1 1160 0.00000000E+00
  1 3120 0.00000000E+00
  1 3180 -2.50000000E-05
  1 4170 -2.50000000E-04
END period  107

BEGIN period  108
  1 1120 -2.50000000E-03
  1 1160 0.00000000E+00
  1 3120 0.00000000E+00
  1 3180 -2.50000000E-05
  1 4170 -2.50000000E-04
END period  108

BEGIN period  109
  1 1120 -2.50000000E-03
  1 1160 0.00000000E+00
  1 3120 0.00000000E+00
  1 3180 -2.50000000E-05
  1 4170 -2.50000000E-04
END period  109

BEGIN period  110
  1 1120 -2.50000000E-03
  1 1160 0.00000000E+00
  1 3120 0.00000000E+00
  1 3180 -2.50000000E-05
  1 4170 -2.50000000E-04
END period  110

BEGIN period  111
  1 1120 -2.50000000E-03
  1 1160 0.00000000E+00
  1 3120 0.00000000E+00
  1 3180 -2.50000000E-05
  1 4170 -2.50000000E-04
END period  111

BEGIN period  112
  1 1120 -2.50000000E-03
  1 1160 0.00000000E+00
  1 3120 0.00000000E+00
  1 3180 -2.50000000E-05
  1 4170 -2.50000000E-04
END period  112

BEGIN period  113
  1 1120 -2.50000000E-03
  1 1160 0.00000000E+00
  1 3120 0.00000000E+00
  1 3180 -2.50000000E-05
  1 4170 -2.50000000E-04
END period  113

BEGIN period  114
  1 1120 -2.50000000E-03
  1 1160 0.00000000E+00
  1 3120 0.00000000E+00
  1 3180 -2.50000000E-05
  1 4170 -2.50000000E-04
END period  114

BEGIN period  115
  1 1120 -2.50000000E-03
  1 1160 0.00000000E+00
  1 3120 0.00000000E+00
  1 3180 -2.50000000E-05
  1 4170 -2.50000000E-04
END period  115

BEGIN period  116
  1 1120 -2.50000000E-03
  1 1160 0.00000000E+00
  1 3120 0.00000000E+00
  1 3180 -2.50000000E-05
  1 4170 -2.50000000E-04
END period  116

BEGIN period  117
  1 1120 -2.50000000E-03
  1 1160 0.00000000E+00
  1 3120 0.00000000E+00
  1 3180 -2.50000000E-05
  1 4170 -2.50000000E-04
END period  117

BEGIN period  118
  1 1120 -2.50000000E-03
  1 1160 0.00000000E+00
  1 3120 0.00000000E+00
  1 3180 -2.50000000E-05
  1 4170 -2.50000000E-04
END period  118

BEGIN period  119
  1 1120 -2.50000000E-03
  1 1160 0.00000000E+00
  1 3120 0.00000000E+00
  1 3180 -2.50000000E-05
  1 4170 -2.50000000E-04
END period  119

BEGIN period  120
  1 1120 -2.50000000E-03
  1 1160 0.00000000E+00
  1 3120 0.00000000E+00
  1 3180 -2.50000000E-05
  1 4170 -2.50000000E-04
END period  120

BEGIN period  121
  1 1120 -2.50000000E-03
  1 1160 0.00000000E+00
  1 3120 0.00000000E+00
  1 3180 -2.50000000E-05
  1 4170 -2.50000000E-04
END period  121

BEGIN period  122
  1 1120 -2.50000000E-03
  1 1160 0.00000000E+00
  1 3120 0.00000000E+00
  1 3180 -2.50000000E-05
  1 4170 -2.50000000E-04
END period  122

BEGIN period  123
  1 1120 -2.50000000E-03
  1 1160 0.00000000E+00
  1 3120 0.00000000E+00
  1 3180 -2.50000000E-05
  1 4170 -2.50000000E-04
END period  123

BEGIN period  124
  1 1120 -2.50000000E-03
  1 1160 0.00000000E+00
  1 3120 0.00000000E+00
  1 3180 -2.50000000E-05
  1 4170 -2.50000000E-04
END period  124

BEGIN period  125
  1 1120 -2.50000000E-03
  1 1160 0.00000000E+00
  1 3120 0.00000000E+00
  1 3180 -2.50000000E-05
  1 4170 -2.50000000E-04
END period  125

BEGIN period  126
  1 1120 -2.50000000E-03
  1 1160 0.00000000E+00
  1 3120 0.00000000E+00
  1 3180 -2.50000000E-05
  1 4170 -2.50000000E-04
END period  126

BEGIN period  127
  1 1120 -2.50000000E-03
  1 1160 0.00000000E+00
  1 3120 0.00000000E+00
  1 3180 -2.50000000E-05
  1 4170 -2.50000000E-04
END period  127

BEGIN period  128
  1 1120 -2.50000000E-03
  1 1160 0.00000000E+00
  1 3120 0.00000000E+00
  1 3180 -2.50000000E-05
  1 4170 -2.50000000E-04
END period  128

BEGIN period  129
  1 1120 -2.50000000E-03
  1 1160 0.00000000E+00
  1 3120 0.00000000E+00
  1 3180 -2.50000000E-05
  1 4170 -2.50000000E-04
END period  129

BEGIN period  130
  1 1120 -2.50000000E-03
  1 1160 0.00000000E+00
  1 3120 0.00000000E+00
  1 3180 -2.50000000E-05
  1 4170 -2.50000000E-04
END period  130

BEGIN period  131
  1 1120 -2.50000000E-03
  1 1160 0.00000000E+00
  1 3120 0.00000000E+00
  1 3180 -2.50000000E-05
  1 4170 -2.50000000E-04
END period  131

BEGIN period  132
  1 1120 -2.50000000E-03
  1 1160 0.00000000E+00
  1 3120 0.00000000E+00
  1 3180 -2.50000000E-05
  1 4170 -2.50000000E-04
END period  132

BEGIN period  133
  1 1120 -2.50000000E-03
  1 1160 0.00000000E+00
  1 3120 0.00000000E+00
  1 3180 -2.50000000E-05
  1 4170 -2.50000000E-04
END period  133

BEGIN period  134
  1 1120 -2.50000000E-03
  1 1160 0.00000000E+00
  1 3120 0.00000000E+00
  1 3180 -2.50000000E-05
  1 4170 -2.50000000E-04
END period  134

BEGIN period  135
  1 1120 -2.50000000E-03
  1 1160 0.00000000E+00
  1 3120 0.00000000E+00
  1 3180 -2.50000000E-05
  1 4170 -2.50000000E-04
END period  135

BEGIN period  136
  1 1120 -2.50000000E-03
  1 1160 0.00000000E+00
  1 3120 0.00000000E+00
  1 3180 -2.50000000E-05
  1 4170 -2.50000000E-04
END period  136

BEGIN period  137
  1 1120 -2.50000000E-03
  1 1160 0.00000000E+00
  1 3120 0.00000000E+00
  1 3180 -2.50000000E-05
  1 4170 -2.50000000E-04
END period  137

BEGIN period  138
  1 1120 -2.50000000E-03
  1 1160 0.00000000E+00
  1 3120 0.00000000E+00
  1 3180 -2.50000000E-05
  1 4170 -2.50000000E-04
END period  138

BEGIN period  139
  1 1120 -2.50000000E-03
  1 1160 0.00000000E+00
  1 3120 0.00000000E+00
  1 3180 -2.50000000E-05
  1 4170 -2.50000000E-04
END period  139

BEGIN period  140
  1 1120 -2.50000000E-03
  1 1160 0.00000000E+00
  1 3120 0.00000000E+00
  1 3180 -2.50000000E-05
  1 4170 -2.50000000E-04
END period  140

BEGIN period  141
  1 1120 -2.50000000E-03
  1 1160 0.00000000E+00
  1 3120 0.00000000E+00
  1 3180 -2.50000000E-05
  1 4170 -2.50000000E-04
END period  141

BEGIN period  142
  1 1120 -2.50000000E-03
  1 1160 0.00000000E+00
  1 3120 0.00000000E+00
  1 3180 -2.50000000E-05
  1 4170 -2.50000000E-04
END period  142

BEGIN period  143
  1 1120 -2.50000000E-03
  1 1160 0.00000000E+00
  1 3120 0.00000000E+00
  1 3180 -2.50000000E-05
  1 4170 -2.50000000E-04
END period  143

BEGIN period  144
  1 1120 -2.50000000E-03
  1 1160 0.00000000E+00
  1 3120 0.00000000E+00
  1 3180 -2.50000000E-05
  1 4170 -2.50000000E-04
END period  144

BEGIN period  145
  1 1120 -2.50000000E-03
  1 1160 0.00000000E+00
  1 3120 0.00000000E+00
  1 3180 -2.50000000E-05
  1 4170 -2.50000000E-04
END period  145

BEGIN period  146
  1 1120 -2.50000000E-03
  1 1160 0.00000000E+00
  1 3120 0.00000000E+00
  1 3180 -2.50000000E-05
  1 4170 -2.50000000E-04
END period  146

BEGIN period  147
  1 1120 -2.50000000E-03
  1 1160 0.00000000E+00
  1 3120 0.00000000E+00
  1 3180 -2.50000000E-05
  1 4170 -2.50000000E-04
END period  147

BEGIN period  148
  1 1120 -2.50000000E-03
  1 1160 0.00000000E+00
  1 3120 0.00000000E+00
  1 3180 -2.50000000E-05
  1 4170 -2.50000000E-04
END period  148

BEGIN period  149
  1 1120 -2.50000000E-03
  1 1160 0.00000000E+00
  1 3120 0.00000000E+00
  1 3180 -2.50000000E-05
  1 4170 -2.50000000E-04
END period  149

BEGIN period  150
  1 1120 -2.50000000E-03
  1 1160 0.00000000E+00
  1 3120 0.00000000E+00
  1 3180 -2.50000000E-05
  1 4170 -2.50000000E-04
END period  150

BEGIN period  151
  1 1120 -2.50000000E-03
  1 1160 0.00000000E+00
  1 3120 0.00000000E+00
  1 3180 -2.50000000E-05
  1 4170 -2.50000000E-04
END period  151

BEGIN period  152
  1 1120 -2.50000000E-03
  1 1160 0.00000000E+00
  1 3120 0.00000000E+00
  1 3180 -2.50000000E-05
  1 4170 -2.50000000E-04
END period  152

BEGIN period  153
  1 1120 -2.50000000E-03
  1 1160 0.00000000E+00
  1 3120 0.00000000E+00
  1 3180 -2.50000000E-05
  1 4170 -2.50000000E-04
END period  153

BEGIN period  154
  1 1120 -2.50000000E-03
  1 1160 0.00000000E+00
  1 3120 0.00000000E+00
  1 3180 -2.50000000E-05
  1 4170 -2.50000000E-04
END period  154

BEGIN period  155
  1 1120 -2.50000000E-03
  1 1160 0.00000000E+00
  1 3120 0.00000000E+00
  1 3180 -2.50000000E-05
  1 4170 -2.50000000E-04
END period  155

BEGIN period  156
  1 1120 -2.50000000E-03
  1 1160 0.00000000E+00
  1 3120 0.00000000E+00
  1 3180 -2.50000000E-05
  1 4170 -2.50000000E-04
END period  156

BEGIN period  157
  1 1120 -2.50000000E-03
  1 1160 0.00000000E+00
  1 3120 0.00000000E+00
  1 3180 -2.50000000E-05
  1 4170 -2.50000000E-04
END period  157

BEGIN period  158
  1 1120 -2.50000000E-03
  1 1160 0.00000000E+00
  1 3120 0.00000000E+00
  1 3180 -2.50000000E-05
  1 4170 -2.50000000E-04
END period  158

BEGIN period  159
  1 1120 -2.50000000E-03
  1 1160 0.00000000E+00
  1 3120 0.00000000E+00
  1 3180 -2.50000000E-05
  1 4170 -2.50000000E-04
END period  159

BEGIN period  160
  1 1120 -2.50000000E-03
  1 1160 0.00000000E+00
  1 3120 0.00000000E+00
  1 3180 -2.50000000E-05
  1 4170 -2.50000000E-04
END period  160

BEGIN period  161
  1 1120 -2.50000000E-03
  1 1160 0.00000000E+00
  1 3120 0.00000000E+00
  1 3180 -2.50000000E-05
  1 4170 -2.50000000E-04
END period  161

BEGIN period  162
  1 1120 -2.50000000E-03
  1 1160 0.00000000E+00
  1 3120 0.00000000E+00
  1 3180 -2.50000000E-05
  1 4170 -2.50000000E-04
END period  162

BEGIN period  163
  1 1120 -2.50000000E-03
  1 1160 0.00000000E+00
  1 3120 0.00000000E+00
  1 3180 -2.50000000E-05
  1 4170 -2.50000000E-04
END period  163

BEGIN period  164
  1 1120 -2.50000000E-03
  1 1160 0.00000000E+00
  1 3120 0.00000000E+00
  1 3180 -2.50000000E-05
  1 4170 -2.50000000E-04
END period  164

BEGIN period  165
  1 1120 -2.50000000E-03
  1 1160 0.00000000E+00
  1 3120 0.00000000E+00
  1 3180 -2.50000000E-05
  1 4170 -2.50000000E-04
END period  165

BEGIN period  166
  1 1120 -2.50000000E-03
  1 1160 0.00000000E+00
  1 3120 0.00000000E+00
  1 3180 -2.50000000E-05
  1 4170 -2.50000000E-04
END period  166

BEGIN period  167
  1 1120 -2.50000000E-03
  1 1160 0.00000000E+00
  1 3120 0.00000000E+00
  1 3180 -2.50000000E-05
  1 4170 -2.50000000E-04
END period  167

BEGIN period  168
  1 1120 -2.50000000E-03
  1 1160 0.00000000E+00
  1 3120 0.00000000E+00
  1 3180 -2.50000000E-05
  1 4170 -2.50000000E-04
END period  168

BEGIN period  169
  1 1120 -2.50000000E-03
  1 1160 0.00000000E+00
  1 3120 0.00000000E+00
  1 3180 -2.50000000E-05
  1 4170 -2.50000000E-04
END period  169

BEGIN period  170
  1 1120 -2.50000000E-03
  1 1160 0.00000000E+00
  1 3120 0.00000000E+00
  1 3180 -2.50000000E-05
  1 4170 -2.50000000E-04
END period  170

BEGIN period  171
  1 1120 -2.50000000E-03
  1 1160 0.00000000E+00
  1 3120 0.00000000E+00
  1 3180 -2.50000000E-05
  1 4170 -2.50000000E-04
END period  171

BEGIN period  172
  1 1120 -2.50000000E-03
  1 1160 0.00000000E+00
  1 3120 0.00000000E+00
  1 3180 -2.50000000E-05
  1 4170 -2.50000000E-04
END period  172

BEGIN period  173
  1 1120 -2.50000000E-03
  1 1160 0.00000000E+00
  1 3120 0.00000000E+00
  1 3180 -2.50000000E-05
  1 4170 -2.50000000E-04
END period  173

BEGIN period  174
  1 1120 -2.50000000E-03
  1 1160 0.00000000E+00
  1 3120 0.00000000E+00
  1 3180 -2.50000000E-05
  1 4170 -2.50000000E-04
END period  174

BEGIN period  175
  1 1120 -2.50000000E-03
  1 1160 0.00000000E+00
  1 3120 0.00000000E+00
  1 3180 -2.50000000E-05
  1 4170 -2.50000000E-04
END period  175

BEGIN period  176
  1 1120 -2.50000000E-03
  1 1160 0.00000000E+00
  1 3120 0.00000000E+00
  1 3180 -2.50000000E-05
  1 4170 -2.50000000E-04
END period  176

BEGIN period  177
  1 1120 -2.50000000E-03
  1 1160 0.00000000E+00
  1 3120 0.00000000E+00
  1 3180 -2.50000000E-05
  1 4170 -2.50000000E-04
END period  177

BEGIN period  178
  1 1120 -2.50000000E-03
  1 1160 0.00000000E+00
  1 3120 0.00000000E+00
  1 3180 -2.50000000E-05
  1 4170 -2.50000000E-04
END period  178

BEGIN period  179
  1 1120 -2.50000000E-03
  1 1160 0.00000000E+00
  1 3120 0.00000000E+00
  1 3180 -2.50000000E-05
  1 4170 -2.50000000E-04
END period  179

BEGIN period  180
  1 1120 -2.50000000E-03
  1 1160 0.00000000E+00
  1 3120 0.00000000E+00
  1 3180 -2.50000000E-05
  1 4170 -2.50000000E-04
END period  180

BEGIN period  181
  1 1120 -2.50000000E-03
  1 1160 0.00000000E+00
  1 3120 0.00000000E+00
  1 3180 -2.50000000E-05
  1 4170 -2.50000000E-04
END period  181

BEGIN period  182
  1 1120 -2.50000000E-03
  1 1160 0.00000000E+00
  1 3120 0.00000000E+00
  1 3180 -2.50000000E-05
  1 4170 -2.50000000E-04
END period  182

BEGIN period  183
  1 1120 -2.50000000E-03
  1 1160 0.00000000E+00
  1 3120 0.00000000E+00
  1 3180 -2.50000000E-05
  1 4170 -2.50000000E-04
END period  183

BEGIN period  184
  1 1120 -2.50000000E-03
  1 1160 0.00000000E+00
  1 3120 0.00000000E+00
  1 3180 -2.50000000E-05
  1 4170 -2.50000000E-04
END period  184

BEGIN period  185
  1 1120 -2.50000000E-03
  1 1160 0.00000000E+00
  1 3120 0.00000000E+00
  1 3180 -2.50000000E-05
  1 4170 -2.50000000E-04
END period  185

BEGIN period  186
  1 1120 -2.50000000E-03
  1 1160 0.00000000E+00
  1 3120 0.00000000E+00
  1 3180 -2.50000000E-05
  1 4170 -2.50000000E-04
END period  186

BEGIN period  187
  1 1120 -2.50000000E-03
  1 1160 0.00000000E+00
  1 3120 0.00000000E+00
  1 3180 -2.50000000E-05
  1 4170 -2.50000000E-04
END period  187

BEGIN period  188
  1 1120 -2.50000000E-03
  1 1160 0.00000000E+00
  1 3120 0.00000000E+00
  1 3180 -2.50000000E-05
  1 4170 -2.50000000E-04
END period  188

BEGIN period  189
  1 1120 -2.50000000E-03
  1 1160 0.00000000E+00
  1 3120 0.00000000E+00
  1 3180 -2.50000000E-05
  1 4170 -2.50000000E-04
END period  189

BEGIN period  190
  1 1120 -2.50000000E-03
  1 1160 0.00000000E+00
  1 3120 0.00000000E+00
  1 3180 -2.50000000E-05
  1 4170 -2.50000000E-04
END period  190

BEGIN period  191
  1 1120 -2.50000000E-03
  1 1160 0.00000000E+00
  1 3120 0.00000000E+00
  1 3180 -2.50000000E-05