# File generated by Flopy version 3.5.0 on 03/06/2024 at 10:47:26.
BEGIN options
  PRINT_OPTION  summary
  COMPLEXITY  complex
END options

BEGIN linear
  LINEAR_ACCELERATION  bicgstab
END linear

