# File generated by Flopy version 3.6.0 on 05/28/2024 at 09:32:29.
BEGIN griddata
  strt
    INTERNAL  FACTOR  1.0
        15.00000000      15.00000000      15.00000000      15.00000000      15.00000000      15.00000000      15.00000000      15.00000000      15.00000000      15.00000000      15.00000000      15.00000000      15.00000000      15.00000000      15.00000000      15.00000000      15.00000000      15.00000000      15.00000000      15.00000000
        15.00000000      15.00000000      15.00000000      15.00000000      15.00000000      15.00000000      15.00000000      15.00000000      15.00000000      15.00000000      15.00000000      15.00000000      15.00000000      15.00000000      15.00000000      15.00000000      15.00000000      15.00000000      15.00000000      15.00000000
        15.00000000      15.00000000      15.00000000      15.00000000      15.00000000      15.00000000      15.00000000      15.00000000      15.00000000      15.00000000      15.00000000      15.00000000      15.00000000      15.00000000      15.00000000      15.00000000      15.00000000      15.00000000      15.00000000      15.00000000
        15.00000000      15.00000000      15.00000000      15.00000000      15.00000000      15.00000000      15.00000000      15.00000000      15.00000000      15.00000000      15.00000000      15.00000000      15.00000000      15.00000000      15.00000000      15.00000000      15.00000000      15.00000000      15.00000000      15.00000000
        15.00000000      15.00000000      15.00000000      15.00000000      15.00000000      15.00000000      15.00000000      15.00000000      15.00000000      15.00000000      15.00000000      15.00000000      15.00000000      15.00000000      15.00000000      15.00000000      15.00000000      15.00000000      15.00000000      15.00000000
        15.00559579      15.00572877      15.00782803      15.01079686      15.01099302      15.01038802      15.01068330      15.01123978      15.01192533      15.01281178      15.01265297      15.01206445      15.01370092      15.01401686      15.01678822      15.01969433      15.02100574      15.02452265      15.02540894      15.02684188
        15.02713566      15.03424597      15.04913046      15.06270703      15.06000094      15.02633158      15.01423224      15.01548471      15.01869502      15.01975681      15.01906732      15.01841386      15.01564113      15.01167885      15.00913001      15.00782308      15.00802748      15.00875009      15.00807522      15.00661786
        15.00438287      15.00333194      15.00319943      15.00363425      15.00398848      15.00475792      15.00683133      15.01265398      15.02368683      15.04322234      15.02573240      15.01353664      15.01138059      15.01274590      15.01454210      15.01682498      15.02217144      15.02931759      15.03400772      15.03692902
        15.03224229      15.03367656      15.04063873      15.04857190      15.05400735      15.06650484      15.08991548      15.12829316      15.13032001      15.10956737      15.06352973      15.04543405      15.03402547      15.02846752      15.02503407      15.02566310      15.02837051      15.03431442      15.03807930      15.03736675
        15.04003322      15.04502184      15.03783251      15.03570424      15.04278101      15.06198131      15.07378574      15.07160656      15.07992842      15.10457077      15.12720794      15.13298315      15.11169660      15.07589088      15.04228030      15.03082916      15.03010808      15.02894823      15.03346264      15.03558108
        15.01439874      15.01345083      15.01624760      15.02100061      15.02375909      15.02302064      15.02259648      15.02492014      15.02530545      15.02460239      15.02582005      15.02665505      15.02952718      15.03110719      15.03242987      15.03769212      15.03921116      15.04212573      15.04659828      15.05230272
        15.05393709      15.06221530      15.07819171      15.09610383      15.10119314      15.06213547      15.02951553      15.02586361      15.02713859      15.02766004      15.02626240      15.02429785      15.02251350      15.01966595      15.01620834      15.01416346      15.01375328      15.01445043      15.01422414      15.01188154
        15.00825063      15.00595200      15.00546339      15.00574666      15.00613034      15.00707900      15.01103056      15.02234208      15.04552045      15.08033030      15.06204404      15.03030081      15.02348099      15.02258404      15.02478766      15.02990406      15.03703961      15.05068944      15.05777884      15.05965273
        15.05764740      15.05815966      15.06292101      15.07006681      15.07653623      15.08757990      15.10569554      15.13866359      15.16441220      15.15640214      15.11505714      15.08082582      15.06778451      15.05712860      15.05124034      15.05036446      15.05759402      15.06844649      15.07836233      15.08433612
        15.09158601      15.10178941      15.09297329      15.08975891      15.09719186      15.11783588      15.14640102      15.15621948      15.16819449      15.19444746      15.22325164      15.23089456      15.21381314      15.16954030      15.10288084      15.06465394      15.05942700      15.05776759      15.06268652      15.07062518
        15.02562591      15.02479631      15.02679039      15.03222552      15.03811111      15.03752204      15.03641000      15.03888474      15.03921000      15.03791297      15.03949249      15.04209327      15.04506261      15.04788031      15.04881071      15.05345576      15.05574203      15.05780159      15.06266845      15.07153624
        15.07902787      15.08782319      15.10173194      15.11552142      15.12255950      15.09690868      15.04462247      15.03291316      15.03090580      15.03062476      15.02926923      15.02685405      15.02527245      15.02388164      15.02106613      15.01854126      15.01778522      15.01808048      15.01813794      15.01624452
        15.01164154      15.00813502      15.00702126      15.00686555      15.00710623      15.00784727      15.01124826      15.02700798      15.05521932      15.09392606      15.09658000      15.04917486      15.03436032      15.02993975      15.03113773      15.03551526      15.04770139      15.06302632      15.07335159      15.07491490
        15.07548958      15.07512675      15.07816620      15.08421357      15.08944095      15.09732943      15.10968747      15.13168835      15.15905971      15.16759274      15.14952008      15.11642334      15.10139827      15.08965679      15.08148996      15.07954809      15.08975351      15.10597293      15.12263081      15.13882669
        15.15489630      15.17340418      15.17148780      15.16552099      15.16986608      15.18774545      15.21679067      15.23536921      15.25086367      15.27364927      15.29531919      15.31153760      15.30361470      15.26954723      15.18856421      15.11253343      15.09123259      15.08997489      15.09361285      15.10193986
        15.03658034      15.03772765      15.04010357      15.04665392      15.05382131      15.05573275      15.05275539      15.05276870      15.05407185      15.05409935      15.05565053      15.05870886      15.06132941      15.06393520      15.06564129      15.06704589      15.07005409      15.07268066      15.07872521      15.08703602
        15.09770194      15.11164527      15.12213742      15.12750938      15.12747070      15.10876229      15.06224425      15.03859166      15.03295090      15.03187661      15.03060330      15.02836610      15.02676897      15.02601389      15.02429896      15.02177719      15.02060959      15.02032436      15.02043315      15.01933418
        15.01476333      15.00982375      15.00792231      15.00743152      15.00751153      15.00794499      15.01007788      15.02473195      15.05290993      15.08927172      15.10393290      15.06947438      15.04404982      15.03485262      15.03357282      15.03571337      15.04936899      15.06665838      15.08001122      15.08522270
        15.08733158      15.08842009      15.09039469      15.09453986      15.09915350      15.10506903      15.11431710      15.12917689      15.15166101      15.16936132      15.16877895      15.15197226      15.13608965      15.12566964      15.11702844      15.11630605      15.12874155      15.15112236      15.17672218      15.20371146
        15.22910564      15.25466389      15.27501724      15.27523267      15.27615607      15.27935847      15.29449235      15.30851938      15.32201352      15.34274034      15.36146800      15.38186633      15.38353139      15.36538704      15.29469668      15.18252458      15.12907548      15.12686478      15.12781986      15.13142528
        15.04740945      15.05044944      15.05528827      15.06237064      15.07184296      15.07754384      15.07149215      15.06718033      15.07080702      15.07266955      15.07453532      15.07881402      15.08140688      15.08363364      15.08321183      15.08180798      15.08322039      15.08608842      15.09321770      15.10060977
        15.10962387      15.12459246      15.13581570      15.13390233      15.12575201      15.10824212      15.07435055      15.04395573      15.03502549      15.03250533      15.03116514      15.02923600      15.02771976      15.02708021      15.02618027      15.02419989      15.02252910      15.02176373      15.02151709      15.02056094
        15.01658699      15.01080185      15.00819675      15.00754966      15.00742213      15.00766501      15.00906451      15.01813327      15.04291674      15.07359272      15.09336219      15.07634872      15.05188399      15.03683567      15.03323352      15.03312488      15.04137207      15.06258546      15.07758302      15.08751682
        15.09377646      15.09826111      15.10039841      15.10328407      15.10770876      15.11264029      15.11975397      15.13091989      15.15094902      15.17191658      15.18039105      15.17840174      15.16896039      15.16265536      15.15720754      15.16078421      15.17984038      15.20672653      15.23971905      15.27862110
        15.31207609      15.33710791      15.38086997      15.40078717      15.40865721      15.39838505      15.39173983      15.38896678      15.38885089      15.40576227      15.42544486      15.44574836      15.46136099      15.45244077      15.40693692      15.27353535      15.17353480      15.16460769      15.16205747      15.16215006
        15.06234359      15.06525648      15.07094154      15.07936526      15.09231320      15.10051894      15.09429819      15.08466765      15.08758108      15.09141952      15.09621834      15.10065070      15.10407648      15.10606869      15.10308083      15.09832981      15.09657683      15.09698298      15.10246469      15.10795059
        15.10970728      15.11842690      15.13295689      15.13396669      15.12057580      15.09991806      15.07358274      15.04930745      15.03739365      15.03319160      15.03128188      15.02951585      15.02815658      15.02756897      15.02702999      15.02566881      15.02390600      15.02258198      15.02158919      15.01988664
        15.01610762      15.01118203      15.00800738      15.00719216      15.00695514      15.00704419      15.00777863      15.01260228      15.03038162      15.05423195      15.07428177      15.07136666      15.05239039      15.03648866      15.03044731      15.02831973      15.02972302      15.04838537      15.06542963      15.07797893
        15.09323182      15.10320318      15.10808818      15.11115169      15.11533075      15.11980080      15.12506806      15.13460011      15.15257867      15.17489225      15.18864466      15.19403182      15.19326679      15.19292952      15.19645393      15.21106906      15.23883436      15.26960126      15.30593716      15.35076150
        15.39119143      15.42279984      15.46583083      15.49974321      15.52415852      15.52335258      15.50882404      15.48860764      15.46469572      15.47086064      15.48779183      15.50985264      15.53597876      15.53367370      15.50812123      15.37779628      15.22695647      15.19824191      15.19427683      15.19286009
        15.09614760      15.09007143      15.09325762      15.10172185      15.11485353      15.12398256      15.12068984      15.10758671      15.10383778      15.10957860      15.11664321      15.12168681      15.12703974      15.12787008      15.12399821      15.11489276      15.10847570      15.10331800      15.10193180      15.10060619
        15.09213551      15.09521656      15.11107829      15.12259630      15.11477211      15.09276704      15.07019871      15.05100582      15.03932720      15.03397238      15.03126565      15.02948623      15.02817122      15.02769860      15.02728433      15.02638641      15.02484762      15.02285628      15.02062459      15.01768805
        15.01404662      15.01035418      15.00750501      15.00648485      15.00624953      15.00620184      15.00650135      15.00859645      15.01989816      15.03864488      15.05655214      15.06186642      15.04939449      15.03469210      15.02589938      15.02175565      15.01991598      15.02697460      15.04127215      15.05431367
        15.08035327      15.10285046      15.11332576      15.11783580      15.12194599      15.12611304      15.13031338      15.13883904      15.15603814      15.17940332      15.19563092      15.20261212      15.20694426      15.21135026      15.22454192      15.25395642      15.29269319      15.33286933      15.37031996      15.41320386
        15.45586761      15.49248357      15.52564161      15.56710622      15.59864108      15.61164754      15.60915112      15.58988546      15.55042602      15.53316761      15.54875946      15.57250338      15.59834670      15.60636499      15.58706774      15.49023273      15.30876946      15.22812836      15.22242450      15.22090478
        15.19690586      15.15226350      15.13595611      15.13183682      15.14117459      15.14729294      15.14529362      15.13446638      15.12505240      15.12831506      15.13359510      15.13995016      15.14536826      15.14676383      15.14011972      15.12690246      15.11311683      15.09836415      15.08145415      15.07247396
        15.06133758      15.05988290      15.07670256      15.10219771      15.10857835      15.08976188      15.06751773      15.04931079      15.03895847      15.03386849      15.03096128      15.02902444      15.02797489      15.02754255      15.02715247      15.02643507      15.02524807      15.02280635      15.01874449      15.01484511
        15.01111778      15.00823802      15.00653971      15.00567686      15.00538279      15.00519229      15.00537315      15.00622427      15.01230490      15.02590305      15.04228688      15.05145180      15.04588316      15.03189502      15.02078081      15.01455254      15.01096884      15.00667852      15.00648035      15.01289135
        15.04731885      15.09457521      15.11625926      15.12376088      15.12808891      15.13219420      15.13652852      15.14371521      15.15932548      15.18248096      15.20021285      15.20906370      15.21483048      15.22158436      15.23961899      15.27951581      15.33010259      15.38447254      15.42960940      15.47168596
        15.51313540      15.54566121      15.57805125      15.61680479      15.64262577      15.65871660      15.66509910      15.66110603      15.62836564      15.59518567      15.60580633      15.62624849      15.64888361      15.66387099      15.64730467      15.58233022      15.40589621      15.26593208      15.24969196      15.24640505
        15.49046788      15.33231439      15.21925736      15.18151966      15.17089556      15.16751715      15.16245851      15.15562241      15.14723230      15.14512566      15.14788894      15.15271643      15.15701959      15.15814573      15.14712484      15.12789363      15.10216098      15.06810772      15.03101207      15.01448463
        15.01756604      15.02088003      15.03762064      15.07324945      15.09819891      15.08866515      15.06673230      15.04779068      15.03705485      15.03262081      15.02994268      15.02821639      15.02739025      15.02706337      15.02668695      15.02597955      15.02490803      15.02210832      15.01693971      15.01210926
        15.00834766      15.00605780      15.00484820      15.00448727      15.00427702      15.00402339      15.00411865      15.00452769      15.00768887      15.01655639      15.02997090      15.04132221      15.04201244      15.03010490      15.01550325      15.00695125      15.00050488      14.98852699      14.96460537      14.95042668
        14.98231320      15.06652848      15.11615570      15.12933154      15.13430547      15.13856071      15.14299552      15.14933610      15.16175940      15.18242159      15.20162009      15.21303242      15.21983232      15.22725045      15.24468579      15.28859306      15.34939071      15.41395321      15.48118518      15.53156639
        15.56737008      15.59383973      15.62487543      15.65309966      15.67168279      15.68581423      15.69286377      15.69886926      15.68676436      15.65693799      15.65448604      15.66937588      15.68728422      15.70181812      15.69657615      15.64839696      15.50336285      15.33546143      15.28491352      15.27594566
        16.07466441      15.77402572      15.42037989      15.26843474      15.20735865      15.18423101      15.17312602      15.16670270      15.16195811      15.15816120      15.15879737      15.16153325      15.16463305      15.16506892      15.14907343      15.11661931      15.07427644      15.01666419      14.94667588      14.92849918
        14.93113089      14.85460000      14.86053178      14.95055951      14.98270402      15.00049170      15.03859688      15.08336538      15.08705342      15.06648108      15.04732073      15.03582081      15.03090997      15.02830657      15.02702227      15.02636374      15.02610746      15.02590838      15.02520503      15.02395406
        15.02125407      15.01586588      15.01005759      15.00650998      15.00418154      15.00299881      15.00267827      15.00276778      15.00272774      15.00258633      15.00292639      15.00449383      15.01005164      15.01923898      15.03168221      15.03737607      15.02946644      15.01130341      14.99827555      14.98877983
        14.96893139      14.91488736      14.88542317      14.87343922      14.82857592      14.80653887      14.89116052      15.01600343      15.10781274      15.13426301      15.14120507      15.14474307      15.14931139      15.15529587      15.16478604      15.18086500      15.19951175      15.21349025      15.22223880      15.23034180
        15.24605220      15.28831475      15.35331463      15.42867043      15.52370172      15.58735351      15.61686008      15.64036384      15.66133644      15.68029883      15.69465526      15.70476054      15.71076165      15.71727998      15.71942494      15.70443073      15.69455490      15.70353749      15.71370794      15.72428764
        15.72735367      15.70132221      15.59702787      15.43346392      15.33994036      15.32153781      16.70118648      16.40720248      15.83854742      15.42843926      15.26529035      15.20053219      15.18015629      15.17208444      15.16805119      15.16532784      15.16489219      15.16736151      15.17026767      15.17119937
        15.15534092      15.10379255      15.04147853      14.97203371      14.90864339      14.85137234      14.90604536      14.86121194      14.77791069      14.72929399      14.74889232      14.67731035      14.63214795      14.64020549      14.56160150      14.51028863      14.51389410      14.32154912      14.73787606      14.78760114
        14.65326956      14.70100581      14.56720058      14.61842502      14.51677005      14.60482014      14.68155374      14.76535125      14.76908614      14.66935539      14.57543291      14.52087905      14.62970249      14.61295006      14.72257193      14.69697321      14.82237646      14.79544814      14.57432239      14.62861220
        14.63220116      14.65965410      14.69978181      14.70719055      14.73811012      14.78090231      14.79887739      14.82577766      14.86242426      14.91950152      14.86459480      14.91368436      14.95337726      14.96923085      15.00076290      15.06044960      15.08365863      15.06530044      15.04766989      15.03514209
        15.02925973      15.02659775      15.02556125      15.02516477      15.02481092      15.02478535      15.02412364      15.02265038      15.02020297      15.01522944      15.00928407      15.00524102      15.00251355      15.00142395      15.00085817      15.00084683      15.00101307      15.00075734      15.00102015      15.00203326
        15.00558493      15.01167931      15.02294328      15.03340211      15.03086228      15.01109512      14.99120790      14.97925162      14.95573416      14.90678157      14.85233957      14.90854152      14.85862165      14.77829825      14.71523174      14.74411902      14.65478789      14.59860611      14.61113759      14.51894657
        14.45877019      14.46470843      14.24802370      14.70553291      14.73573884      14.61120517      14.65329053      14.51621267      14.56791012      14.45869148      14.55080228      14.62781568      14.70234061      14.75785967      14.63780184      14.52960141      14.46541613      14.58666028      14.56429738      14.69072474
        14.65479326      14.80277755      14.75702895      14.51973245      14.57446709      14.58046290      14.60659343      14.64386699      14.65667177      14.68274970      14.71620203      14.74660479      14.76681425      14.80050456      14.86491127      14.81079707      14.86956521      14.97786168      15.09140106      15.13840828
        15.14801652      15.15090067      15.15501160      15.16078416      15.16801292      15.17918497      15.19460715      15.21043892      15.22250587      15.23126019      15.24571511      15.28186839      15.35066424      15.44594954      15.55406628      15.62951087      15.65981920      15.67935370      15.69119310      15.70373765
        15.71306135      15.71828157      15.72405899      15.72895740      15.73441132      15.73237169      15.72393549      15.72878603      15.73308860      15.73788672      15.74164534      15.73666759      15.68106965      15.55629764      15.44262945      15.39891898      17.13401281      16.95494009      16.43409637      15.75337446
        15.37816486      15.22430587      15.18484724      15.17447667      15.16909537      15.16646787      15.16582250      15.16814662      15.17223890      15.17469849      15.16578475      15.10800701      15.02119473      14.95456574      14.90523105      14.86761299      14.86554201      14.89310796      14.89199254      14.90537844
        14.93733659      14.94968182      14.96767506      15.02863225      15.07243196      15.06375744      15.04760392      15.03466805      15.02794728      15.02511413      15.02405063      15.02375700      15.02344201      15.02318696      15.02284984      15.02134693      15.01882985      15.01475146      15.00953672      15.00455566
        15.00122921      15.00007391      14.99934960      14.99892126      14.99887808      14.99885855      14.99896141      14.99961943      15.00215325      15.00661530      15.01523384      15.02935352      15.03355814      15.01746412      14.98980425      14.97500699      14.95763261      14.91675502      14.84946458      14.83297380
        14.89404224      14.88590374      14.90055286      14.98961883      15.08493245      15.13955243      15.15292127      15.15592290      15.15915029      15.16437938      15.17013564      15.17808527      15.18948159      15.20407290      15.21950758      15.23039541      15.24552955      15.27460516      15.33912885      15.45537033
        15.56986272      15.65378950      15.69151577      15.70751241      15.71889847      15.72546108      15.72986262      15.73048275      15.73465272      15.73850882      15.74380205      15.74810660      15.74434802      15.74498963      15.74602970      15.74854142      15.75138766      15.75364661      15.73994633      15.67632780
        15.59086836      15.53104475      17.41638150      17.29698826      16.96404890      16.26016266      15.58512839      15.27146830      15.19137333      15.17442995      15.16747108      15.16367360      15.16240666      15.16362061      15.16710174      15.17087489      15.16751736      15.12543151      15.02547619      14.95219288
        14.91774714      14.90975697      14.91507112      14.92624443      14.93422895      14.94360872      14.98370317      15.04518805      15.05882717      15.04650977      15.03446768      15.02678984      15.02373592      15.02276160      15.02235087      15.02197770      15.02139593      15.02147221      15.02016311      15.01752877
        15.01430064      15.00994600      15.00432041      15.00033234      14.99879431      14.99802383      14.99731568      14.99690770      14.99700063      14.99713395      14.99750839      14.99921285      15.00243281      15.00886418      15.02523049      15.03586675      15.02832175      14.99947739      14.97905133      14.96880620
        14.95342894      14.94373408      14.96625774      15.01490364      15.08212070      15.13568088      15.15452677      15.15879093      15.16174638      15.16591617      15.17071436      15.17607951      15.18513348      15.19702451      15.21316763      15.22772481      15.24367307      15.27011324      15.32449149      15.44436763
        15.57671106      15.65985541      15.70654183      15.72626451      15.73835719      15.74553620      15.74765832      15.74387229      15.74462540      15.74845653      15.75334153      15.75922191      15.75891177      15.75585363      15.75511916      15.75625634      15.75921112      15.76247491      15.76966027      15.76141370
        15.72165700      15.68752676      17.64380855      17.53959435      17.31414575      16.77532963      15.90738098      15.34684886      15.20753360      15.17353425      15.16338657      15.15825005      15.15600166      15.15520437      15.15483503      15.15508565      15.15216742      15.12876992      15.04888511      14.95948907
        14.92233398      14.91430307      14.91331631      14.91548357      14.91665929      14.92183756      14.93967088      14.99874743      15.04215318      15.04283942      15.03363388      15.02593515      15.02270254      15.02172241      15.02109577      15.02053483      15.01978468      15.01977315      15.01908793      15.01668188
        15.01396887      15.01028586      15.00472428      14.99983925      14.99758292      14.99670114      14.99592950      14.99540140      14.99536935      14.99561363      14.99578817      14.99692888      14.99917957      15.00348825      15.01974043      15.03818231      15.04058366      15.01984809      14.99170789      14.98481982
        14.98010400      14.98301003      15.00037687      15.02914430      15.07687812      15.12723673      15.15252062      15.15910411      15.16238923      15.16518663      15.16845540      15.17257313      15.18059039      15.19040296      15.20569280      15.22352793      15.24190180      15.27048613      15.31368120      15.40529859
        15.56237743      15.65922200      15.70470815      15.73474685      15.74968724      15.76159080      15.76573285      15.76048488      15.75680219      15.75950369      15.76407403      15.77000781      15.77107710      15.76606350      15.76331333      15.76221033      15.76547683      15.76914865      15.77918360      15.80185854
        15.80123603      15.79623315      17.81779824      17.73698283      17.55386544      17.17225425      16.31158015      15.46675283      15.22368586      15.17295727      15.15717197      15.15028209      15.14591192      15.14285327      15.13542057      15.12860197      15.12222945      15.11001088      15.07083734      14.97559392
        14.92592684      14.91340120      14.90824743      14.90196530      14.89705178      14.89618833      14.90292608      14.94036832      15.00105778      15.03340254      15.03188776      15.02555542      15.02200699      15.02064611      15.01992898      15.01915255      15.01822836      15.01784574      15.01804241      15.01619095
        15.01357451      15.01029275      15.00538864      14.99969307      14.99645478      14.99539933      14.99467060      14.99406298      14.99389825      14.99414302      14.99435816      14.99508566      14.99689400      14.99968656      15.01266196      15.03878123      15.04866198      15.03904240      15.01212398      15.00114964
        15.00174636      15.00635661      15.01847712      15.03499783      15.06523612      15.11031559      15.14488075      15.15687944      15.16060583      15.16249970      15.16401109      15.16686375      15.17361952      15.18343990      15.19855009      15.21968361      15.24182350      15.27398992      15.31240484      15.37522415
        15.52453868      15.64779596      15.69406252      15.73188123      15.75568086      15.77244681      15.78224262      15.78203234      15.77390421      15.77252539      15.77632489      15.78166699      15.78317079      15.77697351      15.77228236      15.76903481      15.77050012      15.77600144      15.78575463      15.81128485
        15.83804614      15.84570976      17.91046710      17.88238386      17.77115586      17.48962587      16.72725050      15.68446274      15.24483616      15.17011679      15.14882596      15.13897173      15.13219835      15.12483351      15.11142040      15.09187485      15.07569416      15.06534727      15.05633054      14.99125181
        14.93042031      14.91007627      14.89978683      14.88513407      14.87200734      14.86280707      14.86636689      14.88759065      14.93960785      15.00415525      15.02887474      15.02629665      15.02147877      15.01957670      15.01868197      15.01772560      15.01667530      15.01600166      15.01654350      15.01604398