# File generated by Flopy version 3.7.0 on 06/04/2024 at 14:51:32.
BEGIN options
END options

BEGIN griddata
  icelltype
    CONSTANT  0
  k
    INTERNAL  FACTOR  1.0
    3.90854000E-04       0.00139232       0.00675343       0.00312758       0.00175535       0.00392164       0.00935150       0.00873828       0.00711515       0.00381171  5.06630344E-04  3.57261872E-04  5.82224101E-04       0.00140540       0.00175387  7.07327527E-04  3.28768060E-04  3.00995177E-04  1.74026698E-04  3.39371614E-05
    1.26400577E-05  7.94058530E-06  3.97929048E-06  1.48644257E-05  3.25875158E-05  1.53953485E-04  5.26392104E-05  1.01532575E-04  1.77316559E-04  8.90141637E-05  4.38757313E-05  3.40235095E-05  1.71781178E-04       0.00116252       0.00388998       0.00170665  8.42412111E-04  6.53896633E-04  3.85125782E-04  4.88107041E-04
    6.43549434E-04  3.37791730E-04  7.58270993E-04       0.00118561       0.00101205  5.32533000E-04  2.00971470E-04  2.00678331E-04  7.37987986E-05  3.10071109E-05  3.75781274E-05  6.78968847E-05  3.32024080E-05  1.23024131E-04  2.06161245E-04  2.91688556E-05  2.06223287E-05  1.35482659E-05  1.58532743E-05  1.64888997E-05
    2.02437296E-05  4.26565143E-05  9.20141389E-05  1.12008232E-04  2.00608780E-04  5.56859405E-04  2.71306081E-04  3.11295275E-04       0.00196367       0.00133559       0.00133447       0.00120795       0.00124709       0.00107911  2.67663503E-04  1.10559901E-04  5.48311690E-05  4.33192857E-05  2.97982786E-05  4.22068040E-05
    8.31421877E-05  1.62169961E-04  9.39912206E-05  6.37365200E-05  4.64098008E-05  5.87287412E-05  7.14096181E-05  1.78258096E-04  1.55408968E-04  7.82405234E-05  5.12661802E-05  2.18312842E-05  1.00928744E-05  2.08573647E-05  2.21010101E-05  1.16048752E-05  1.06273527E-05  2.78631568E-05  2.84287650E-05  1.87377761E-05
    3.03069472E-04  7.28049443E-04       0.00548254       0.00751789       0.00160682       0.00287326       0.00885569       0.00605676       0.00499843       0.00338061  5.33737953E-04  1.98865444E-04  2.78608677E-04  5.56602094E-04       0.00100850       0.00112821  3.71893000E-04  3.11813361E-04  2.13979631E-04  7.12777442E-05
    2.09163972E-05  8.79516475E-06  4.49191781E-06  1.29129653E-05  4.28217065E-05  1.61608546E-04  1.08181745E-04  7.03968147E-05  1.83461988E-04  1.14286329E-04  9.23106622E-05  4.48009644E-05  1.02010102E-04  5.68144127E-04       0.00216989       0.00145945  9.91120641E-04       0.00107711  6.18253953E-04  4.73475622E-04
    5.33659842E-04  3.37755925E-04  5.15795052E-04  6.80315973E-04       0.00121928  7.65505615E-04  1.76144947E-04  1.89877908E-04  1.05496410E-04  4.14851411E-05  3.11436957E-05  6.70053058E-05  5.41422419E-05  7.11843528E-05  2.06685728E-04  3.00933990E-05  1.09020429E-05  1.31018729E-05  1.32137097E-05  1.89753142E-05
    1.15588839E-05  3.34507537E-05  5.73959095E-05  5.63618990E-05  7.72132161E-05  3.40223811E-04  4.09820043E-04  2.63229418E-04  8.76620117E-04       0.00212818       0.00143906       0.00122023  9.57388498E-04       0.00153497  3.54714240E-04  6.05197846E-05  3.84366463E-05  3.65587998E-05  2.82782193E-05  3.85313112E-05
    8.42391297E-05  1.97212804E-04  1.32437336E-04  6.13320557E-05  4.36242055E-05  5.15810504E-05  7.03936678E-05  1.42807993E-04  2.51502945E-04  9.36639785E-05  6.04868151E-05  3.64631500E-05  1.07332152E-05  1.06874351E-05  3.08235935E-05  2.02939976E-05  1.46659012E-05  3.81541763E-05  3.83031451E-05  1.71644207E-05
    3.60443013E-04  5.29989875E-04       0.00266687       0.01195903       0.00272715       0.00184588       0.00668693       0.00517015       0.00426018       0.00220569  9.12452275E-04  1.24868338E-04  1.64203261E-04  3.69439310E-04  4.12887270E-04  9.12953952E-04  6.26526309E-04  3.66764934E-04  2.26251351E-04  1.16317828E-04
    3.83031622E-05  1.70188317E-05  5.46938942E-06  7.96239389E-06  6.76857856E-05  1.34620277E-04  2.48300506E-04  7.91061297E-05  1.24978272E-04  1.38842826E-04  1.17131844E-04  8.95155806E-05  8.95387425E-05  2.57975523E-04       0.00128179       0.00129645       0.00101801       0.00139829       0.00134420  5.50872255E-04
    4.63569593E-04  3.18902311E-04  3.81299726E-04  6.58657659E-04  8.37200467E-04  9.79365716E-04  2.54798754E-04  1.66067843E-04  1.54773911E-04  7.39154937E-05  4.00770287E-05  6.01169470E-05  8.47176619E-05  6.51893827E-05  1.30241366E-04  2.78044562E-05  8.97284736E-06  1.27102464E-05  1.31040592E-05  1.81181905E-05
    9.73290680E-06  1.92265789E-05  5.26492894E-05  3.43359103E-05  4.04823613E-05  1.30590968E-04  3.67218734E-04  2.51764434E-04  3.53529592E-04       0.00227384       0.00133553       0.00132793  6.88565264E-04       0.00104720  7.25860032E-04  5.86472906E-05  2.67627245E-05  3.63393925E-05  2.53998058E-05  3.73674791E-05
    8.89433998E-05  1.85088547E-04  1.49369514E-04  9.00523453E-05  3.40363289E-05  4.52491516E-05  7.77765999E-05  8.76964614E-05  2.82586224E-04  1.24711801E-04  9.00760055E-05  6.52805748E-05  1.86098068E-05  7.14087357E-06  2.89506697E-05  3.47104492E-05  3.22826970E-05  4.93077675E-05  6.30093855E-05  2.15762693E-05
    5.31517744E-04  5.43249796E-04       0.00161095       0.00614268       0.00459941       0.00181432       0.00271958       0.00426875       0.00380227       0.00159165  9.47313921E-04  1.51267156E-04  1.01923701E-04  3.29417617E-04  3.02715828E-04  4.88647603E-04  8.94796112E-04  4.99462385E-04  2.95268605E-04  1.27164437E-04
    7.61719482E-05  3.52776320E-05  6.65047643E-06  5.08569649E-06  4.64490465E-05  1.85204551E-04  2.85186239E-04  1.49303220E-04  1.00369582E-04  1.94890679E-04  1.42391102E-04  1.13102567E-04  7.74343673E-05  2.34877764E-04  6.17423052E-04       0.00114858  8.33389189E-04       0.00130323       0.00283424  7.83369940E-04
    5.09654895E-04  2.98755360E-04  4.45527789E-04  6.87087267E-04  5.55854411E-04  8.61060455E-04  6.20965432E-04  1.92245064E-04  2.54051341E-04  1.39376941E-04  4.88374085E-05  5.07346067E-05  1.05216593E-04  6.48517628E-05  6.79480674E-05  3.35651313E-05  7.74017061E-06  1.34684075E-05  2.18274892E-05  1.39522650E-05
    1.39531360E-05  1.02643725E-05  3.67743418E-05  2.65706254E-05  2.76177117E-05  6.65549558E-05  1.60386040E-04  2.30756688E-04  2.38777742E-04       0.00109175       0.00195425       0.00133901  5.73437561E-04  6.28364277E-04  8.36560810E-04  1.49867106E-04  2.98936045E-05  4.02762096E-05  2.13426490E-05  2.78698181E-05
    1.05776470E-04  2.42950585E-04  1.54626716E-04  1.10634503E-04  3.22827579E-05  3.16636409E-05  9.86886631E-05  7.10548526E-05  2.32775792E-04  1.44915291E-04  1.28866094E-04  1.02430119E-04  5.13936490E-05  8.64668668E-06  2.37778224E-05  5.82123297E-05  5.68084702E-05  7.09658147E-05  1.01308078E-04  3.49909034E-05
    5.04647229E-04  7.09480230E-04       0.00124085       0.00296908       0.00424447       0.00173664       0.00150876       0.00234043       0.00211267       0.00179746  8.36713546E-04  2.10207138E-04  8.87862061E-05  1.78078685E-04  3.12241888E-04  3.50578938E-04  6.46269738E-04  7.75946851E-04  6.40123696E-04  1.56156714E-04
    8.75564581E-05  4.14537772E-05  1.04432503E-05  6.81023455E-06  2.15316207E-05  2.79415071E-04  3.51213318E-04  2.14803696E-04  8.58768135E-05  1.82893610E-04  1.81337386E-04  1.55609494E-04  1.06559436E-04  2.14139411E-04  3.80457903E-04  8.89202342E-04  5.42431083E-04       0.00106821       0.00325612       0.00172664
    4.66316115E-04  4.16948538E-04  4.51583057E-04  9.01818079E-04  5.52398449E-04  8.76673842E-04  7.55631470E-04  2.93847794E-04  3.59933308E-04  2.56891720E-04  9.86664914E-05  4.91105288E-05  7.49813333E-05  6.22505834E-05  5.19154911E-05  2.94923059E-05  8.91470380E-06  1.00552589E-05  3.09328267E-05  1.71295056E-05
    2.05188122E-05  1.12161564E-05  2.15797827E-05  2.74148561E-05  2.19361252E-05  4.65109845E-05  1.04752187E-04  1.70112313E-04  1.42051859E-04  4.96370794E-04       0.00234291       0.00138253  6.85570757E-04  3.95614814E-04  6.49051294E-04  4.47544664E-04  4.01117395E-05  3.73384910E-05  3.21412452E-05  2.16360718E-05
    1.03327265E-04  3.70997556E-04  1.69960239E-04  8.91689783E-05  5.22256962E-05  2.30774431E-05  6.71358715E-05  1.00591776E-04  1.27456760E-04  2.20089766E-04  2.23551954E-04  1.64022412E-04  9.83550091E-05  2.02600870E-05  2.01638427E-05  6.83472575E-05  1.09832509E-04  1.00883533E-04  1.35719748E-04  4.91678232E-05
    3.51186339E-04  8.44398765E-04       0.00111276       0.00237202       0.00226778       0.00174802       0.00177045       0.00118564  9.84211189E-04       0.00143660  6.70749092E-04  2.75738786E-04  5.52637200E-05  1.35455271E-04  3.17830565E-04  3.65431826E-04  4.55335761E-04  7.97734395E-04       0.00118003  3.21856659E-04
    9.41602994E-05  5.37445696E-05  1.45179551E-05  7.02148868E-06  1.75113105E-05  2.43842853E-04  5.60591516E-04  2.86947292E-04  8.90858278E-05  1.03409713E-04  2.64375019E-04  2.47768627E-04  1.77194016E-04  2.37599739E-04  4.71813919E-04  6.27989799E-04  4.26949833E-04  4.70928056E-04       0.00213077       0.00259949
    7.28923749E-04  4.14911135E-04  7.27615394E-04  8.48575280E-04  8.26896951E-04  8.47359406E-04  7.27690971E-04  4.13589502E-04  4.07183472E-04  3.32257884E-04  2.02845579E-04  7.04804444E-05  3.71791392E-05  4.54630818E-05  4.13643472E-05  2.27001156E-05  1.06655183E-05  7.88195563E-06  3.46820281E-05  3.60194154E-05
    2.08323845E-05  2.04034815E-05  1.49666528E-05  3.02401966E-05  2.44500042E-05  4.31924806E-05  9.35959102E-05  1.10568716E-04  1.18607815E-04  2.34033561E-04       0.00110967       0.00171589       0.00107710  4.42694663E-04  5.20228029E-04  7.83277682E-04  1.04101569E-04  2.70843063E-05  5.04339147E-05  1.80273513E-05
    6.33184792E-05  4.40937160E-04  2.40270076E-04  9.91805890E-05  6.77567277E-05  2.37524022E-05  3.08686492E-05  1.44046877E-04  1.13361568E-04  2.33790807E-04  2.56058629E-04  3.11241440E-04  1.87642573E-04  6.21404287E-05  3.21534969E-05  4.98758086E-05  1.46256193E-04  1.43465718E-04  1.33704837E-04  7.63934198E-05
    2.84872340E-04  6.93749480E-04  9.66108154E-04       0.00152173       0.00156910       0.00161623       0.00194765       0.00125191  6.90182031E-04  4.32552662E-04  6.78008480E-04  2.59820859E-04  6.19330036E-05  1.17251396E-04  3.00226155E-04  4.39049081E-04  4.26943816E-04  7.16541295E-04       0.00105089  9.31783223E-04
    1.39617621E-04  6.62675836E-05  2.42426098E-05  9.95164871E-06  1.81430903E-05  1.22610529E-04  7.97151183E-04  4.52967787E-04  1.44532447E-04  6.11737741E-05  2.97125839E-04  2.88101976E-04  4.07377147E-04  2.86989816E-04  6.81334700E-04  5.45539555E-04  4.04465098E-04  2.40409372E-04       0.00123013       0.00251257
    8.95671942E-04  4.76871599E-04  7.47933756E-04       0.00103912  9.66887890E-04  7.07532801E-04  6.80881825E-04  3.43330525E-04  3.20998958E-04  4.43796882E-04  3.00846397E-04  1.24134501E-04  3.53632900E-05  1.96238777E-05  2.75529328E-05  2.42498762E-05  1.29883709E-05  8.13319867E-06  2.77412098E-05  6.42495056E-05
    2.75276647E-05  3.44766962E-05  1.75659257E-05  2.85260691E-05  3.23045893E-05  5.07913851E-05  1.23883916E-04  1.13644155E-04  1.30299623E-04  9.30249151E-05  5.77243029E-04       0.00144484       0.00143294  7.81972294E-04  5.19984099E-04       0.00100330  3.11137107E-04  2.92062118E-05  3.58469753E-05  2.89552069E-05
    4.79285140E-05  2.34079918E-04  3.79322844E-04  1.12614976E-04  5.45476721E-05  2.51395635E-05  2.69287746E-05  7.08213225E-05  1.58774730E-04  1.97947938E-04  3.03726857E-04  4.83232600E-04  3.64310323E-04  1.95529479E-04  8.01215877E-05  4.99072296E-05  9.88919304E-05  2.27078852E-04  1.44435059E-04  8.95904419E-05
    3.23050663E-04  4.24940557E-04  7.90432806E-04       0.00122544       0.00121703       0.00120590       0.00205556       0.00142031  5.68940556E-04  1.79660195E-04  4.70048173E-04  2.29732832E-04  6.67619202E-05  8.28942283E-05  2.71180374E-04  4.22359567E-04  5.74386550E-04  6.00382310E-04  9.87579790E-04       0.00100925
    4.05541492E-04  6.81855255E-05  3.82446740E-05  1.64871630E-05  2.34035752E-05  7.38995681E-05  5.23774742E-04  5.83213999E-04  2.73936095E-04  5.99302533E-05  1.75149704E-04  4.47896759E-04  6.95286507E-04  5.77632642E-04  6.16502207E-04  5.65614891E-04  4.82457206E-04  3.15147413E-04  6.28362410E-04       0.00156981
         0.00114606  6.84212093E-04  6.81125887E-04       0.00135218  9.65751285E-04  7.25038076E-04  5.70904842E-04  3.30322139E-04  2.02373925E-04  5.73468690E-04  4.21557220E-04  2.15418341E-04  4.69213725E-05  1.13372140E-05  1.38156106E-05  2.38259416E-05  1.59213152E-05  8.14037910E-06  1.44739608E-05  8.10423620E-05
    5.57665108E-05  5.27328127E-05  2.34219772E-05  4.09914428E-05  5.01404368E-05  4.93221310E-05  1.73377901E-04  1.87160322E-04  8.51498964E-05  8.13684317E-05  2.77434583E-04  7.34818301E-04       0.00114048       0.00127658  5.85853664E-04  7.69740084E-04  5.30426932E-04  5.75684373E-05  3.03015950E-05  3.51937229E-05
    4.42160841E-05  1.21053430E-04  3.90818291E-04  1.05662058E-04  6.49722834E-05  2.65815734E-05  3.07377493E-05  4.30302953E-05  2.03552252E-04  2.28464728E-04  2.75576891E-04  4.66569347E-04  4.80351032E-04  4.61505942E-04  2.52521671E-04  1.09214090E-04  8.46686293E-05  1.92640358E-04  1.51251207E-04  1.01750789E-04
    3.61579826E-04  4.26690871E-04  7.83072539E-04       0.00108762       0.00115220  7.92968937E-04       0.00206418       0.00124543  5.88115213E-04  1.63381254E-04  1.82196592E-04  2.47597300E-04  7.80164660E-05  7.54918287E-05  1.87336908E-04  4.44006312E-04  5.12485634E-04  6.13694146E-04  9.23300057E-04  8.47671003E-04
    6.21824675E-04  1.07303990E-04  6.37831153E-05  2.44953592E-05  2.63986517E-05  5.29238585E-05  1.77955576E-04  5.58965078E-04  4.89858905E-04  1.11217565E-04  1.31138713E-04  5.58393019E-04  9.19183321E-04       0.00105954  6.05097772E-04  5.93899007E-04  6.34108413E-04  5.32934731E-04  5.81585566E-04       0.00115467
         0.00147354       0.00104700  7.61387145E-04       0.00123307       0.00107370  8.54097000E-04  5.28431338E-04  3.53039059E-04  1.65158919E-04  4.48056121E-04  7.91159008E-04  4.39232863E-04  7.85444699E-05  1.13149030E-05  7.32797319E-06  1.29708189E-05  1.61857078E-05  9.78943687E-06  9.92680052E-06  5.44167214E-05
    7.32397510E-05  8.89010379E-05  5.06365158E-05  4.78796209E-05  6.73532388E-05  4.20873628E-05  1.89531384E-04  3.37383155E-04  7.17287297E-05  8.34372510E-05  1.20226064E-04  4.00699169E-04  7.07118906E-04       0.00148753  8.39033115E-04  5.50802878E-04  5.27867957E-04  1.41252662E-04  3.02848240E-05  3.01622391E-05
    4.11296749E-05  1.20707561E-04  2.63521035E-04  1.14077870E-04  7.19628112E-05  1.72375494E-05  2.99138463E-05  5.67966636E-05  1.49614148E-04  3.11275991E-04  2.19007020E-04  4.41299631E-04  5.40187614E-04  6.68388138E-04  5.72234046E-04  3.18025512E-04  9.32789987E-05  1.34537667E-04  1.37677754E-04  1.58191375E-04
    4.10163520E-04  4.38759894E-04       0.00104030       0.00112685       0.00130795  7.21109937E-04       0.00127178       0.00139805  6.31561380E-04  2.04836209E-04  1.30299799E-04  2.49873019E-04  1.09575775E-04  9.65437448E-05  1.65266679E-04  3.53581827E-04  4.48610101E-04  6.26758098E-04  6.23425688E-04  8.43320499E-04
    5.55104700E-04  1.92089328E-04  6.40151274E-05  4.73363878E-05  2.75845073E-05  4.17599342E-05  8.87829794E-05  2.67681694E-04  6.65655060E-04  2.33876921E-04  1.40250550E-04  5.20463033E-04       0.00126026       0.00156234  8.02326409E-04  4.94737497E-04  6.67595787E-04  9.25194069E-04  8.48827694E-04       0.00102724
         0.00108566       0.00144609       0.00111300  8.95991126E-04       0.00152030  8.08210544E-04  6.60242335E-04  3.54177573E-04  2.73206419E-04  3.71299300E-04       0.00100135  8.01719702E-04  1.39352384E-04  1.70896897E-05  6.90934587E-06  8.75124181E-06  1.39272855E-05  8.91779757E-06  1.11713511E-05  3.14562667E-05
    8.03523219E-05  1.02338179E-04  8.78861496E-05  5.98787597E-05  7.37292610E-05  5.41879825E-05  1.16695811E-04  3.88404236E-04  1.27610956E-04  6.04771247E-05  9.61564438E-05  2.42184413E-04  5.77728580E-04       0.00120402       0.00103466  5.69383193E-04  4.27197884E-04  2.01054719E-04  5.53648627E-05  2.29864698E-05
    2.85881355E-05  7.30739688E-05  1.89225719E-04  1.38308120E-04  4.27124697E-05  1.78913802E-05  1.46631045E-05  5.17420435E-05  1.13499829E-04  3.85083796E-04  2.56598230E-04  3.58038816E-04  4.65511288E-04  6.57292243E-04  9.44462638E-04  6.11107084E-04  1.80305633E-04  1.03398732E-04  1.24346758E-04  1.31642962E-04
    6.38805190E-04  6.34215409E-04  9.30289584E-04       0.00219693       0.00150295  6.34490990E-04  6.54624430E-04       0.00118394  7.54138404E-04  2.99763095E-04  1.62510102E-04  2.28520162E-04  1.49857091E-04  1.52771087E-04  1.74077818E-04  2.99370581E-04  6.01526346E-04  5.21899838E-04  6.24137043E-04  6.74005154E-04
    6.74005154E-04  6.74005154E-04  6.74005154E-04  3.97637496E-04  2.15618033E-04  6.09072281E-05  5.77657222E-05  3.61738970E-05  3.91711729E-05  6.54599988E-05  1.19357487E-04  3.97543220E-04  5.12909208E-04  2.41883568E-04  4.99997660E-04       0.00157917       0.00193924  7.38411417E-04  6.19555914E-04  4.77584778E-04
         0.00109309       0.00117349  8.85461750E-04  8.48422455E-04       0.00124862       0.00124330  8.52867963E-04       0.00169838  9.99937121E-04  7.27782381E-04  4.55670885E-04  3.17418554E-04  3.36850011E-04  7.90688157E-04  7.77199289E-04  2.25951547E-04  3.36918882E-05  7.48097425E-06  9.63799478E-06  1.07767214E-05
    8.17753966E-06  1.44140874E-05  2.47279593E-05  2.47279593E-05  2.47279593E-05  2.47279593E-05  9.30070861E-05  1.17363599E-04  1.32833699E-04  6.93907044E-05  6.38651249E-05  5.54672923E-05  7.51022422E-05  3.29787282E-04  1.93847213E-04  4.37510679E-05  1.40312240E-04  2.25963634E-04  5.22035822E-04       0.00108156
         0.00133254  8.85115428E-04  4.43655524E-04  1.86176466E-04  9.88210151E-05  3.00539129E-05  1.79993636E-05  3.19684540E-05  9.48617078E-05  1.41930417E-04  4.22661986E-05  1.82531754E-05  6.34491262E-06  2.39676320E-05  8.30699523E-05  2.85346965E-04  3.98718094E-04  3.67081538E-04  3.93765526E-04  6.21527305E-04
         0.00102975  8.40133797E-04  3.54582207E-04  9.76674431E-05  1.00148963E-04  8.21626405E-05       0.00127456  6.11414864E-04  8.29790858E-04       0.00307705       0.00216511  9.68349690E-04  3.73669755E-04  6.38371212E-04  8.49872925E-04  4.76992269E-04  2.15394734E-04  2.71554934E-04  2.26055300E-04  2.12121017E-04
    2.08991955E-04  2.52859405E-04  7.25736125E-04  5.96428116E-04  6.25734347E-04  6.25734347E-04  6.25734347E-04  6.25734347E-04  4.29539700E-04  4.29539700E-04  4.29539700E-04  4.29539700E-04  4.29539700E-04  4.29539700E-04  4.29539700E-04  4.29539700E-04  4.29539700E-04  4.29539700E-04  4.29539700E-04  4.29539700E-04
    4.29539700E-04  4.29539700E-04  4.29539700E-04  4.29539700E-04  4.29539700E-04  4.29539700E-04  4.29539700E-04  4.29539700E-04  4.29539700E-04  4.29539700E-04  4.29539700E-04  4.29539700E-04  4.29539700E-04  4.29539700E-04  4.29539700E-04  4.29539700E-04  4.29539700E-04  4.29539700E-04  4.29539700E-04  4.29539700E-04
    4.29539700E-04  4.29539700E-04  4.29539700E-04  4.29539700E-04  4.29539700E-04  4.29539700E-04  4.29539700E-04  4.29539700E-04  3.55811334E-04  3.55811334E-04  3.55811334E-04  3.55811334E-04  2.25174930E-04  9.08793951E-05  4.90122380E-05  4.21850636E-05  3.52285359E-05  6.94123249E-05  9.34740352E-05  2.64417142E-04
    5.74451808E-04  3.36937241E-04  7.38492562E-04       0.00140492       0.00232439  8.63783852E-04  3.98300503E-04  4.27244362E-04  7.63283176E-04       0.00143006  9.95841978E-04  6.15531821E-04  6.25319733E-04       0.00112777  8.17825269E-04       0.00137164       0.00150621  7.93267429E-04  4.84990630E-04  3.05293580E-04
    2.17912075E-04  5.16664305E-04  5.81483719E-04  2.49632653E-04  4.99710553E-05  1.36426576E-05  8.96405723E-06  1.44905549E-05  8.30967901E-06  1.19321736E-05  1.19321736E-05  1.19321736E-05  1.19321736E-05  2.45841934E-05  2.45841934E-05  2.45841934E-05  2.45841934E-05  2.45841934E-05  2.45841934E-05  2.45841934E-05
    2.45841934E-05  2.45841934E-05  2.45841934E-05  2.45841934E-05  2.45841934E-05  2.45841934E-05  2.45841934E-05  2.45841934E-05  2.45841934E-05  2.45841934E-05  2.45841934E-05  2.45841934E-05  2.45841934E-05  2.45841934E-05  2.45841934E-05  2.45841934E-05  2.45841934E-05  2.45841934E-05  2.45841934E-05  2.45841934E-05
    2.45841934E-05  2.45841934E-05  2.45841934E-05  2.45841934E-05  2.45841934E-05  2.45841934E-05  2.45841934E-05  2.45841934E-05  2.45841934E-05  2.45841934E-05  2.45841934E-05  2.45841934E-05  2.45841934E-05  1.16284717E-04  1.16284717E-04  1.16284717E-04  1.16284717E-04  1.57391245E-04  1.26239720E-04  8.49761678E-05
    7.16630518E-05  4.01625694E-05  7.70602715E-05  2.76181356E-04  2.04373320E-04  6.40266342E-05  1.32506867E-04  3.00037936E-04  6.25239808E-04       0.00131583       0.00217449  9.55567710E-04  6.26736650E-04  2.26956967E-04  9.93614077E-05  4.08882184E-05  1.49888856E-05  1.60167285E-05  3.69597613E-05  8.00186738E-05
    3.82393921E-05  1.24456896E-05  4.89972927E-06  9.46013669E-06  3.87201059E-05  1.44519856E-04  5.02452803E-04  5.48649622E-04  3.39877096E-04  4.32946047E-04       0.00106864  8.28199444E-04  4.89731599E-04  1.55784187E-04  9.01427475E-05  8.54643646E-05       0.00211443  6.05139322E-04  7.56067821E-04       0.00267458
         0.00430366       0.00197693  4.31109047E-04  3.78391592E-04  5.51770678E-04  7.32822078E-04  3.19643608E-04  3.75241587E-04  2.64118783E-04  2.82934462E-04  2.12233245E-04  1.96175048E-04  6.06679627E-04  8.63073695E-04  4.54525028E-04  5.52629672E-04  5.52629672E-04  5.52629672E-04  5.52629672E-04  3.33240495E-04
    2.72030952E-04  1.15225885E-04  5.01370322E-05  4.04935443E-05  3.38285531E-05  5.25732160E-05  1.28162957E-04  2.19034743E-04  4.16529041E-04  5.00251786E-04  9.05419763E-04       0.00109483       0.00206991       0.00114632  3.01013047E-04  4.07119158E-04  4.91103440E-04       0.00148926  9.93553356E-04  5.82362922E-04
    3.78483836E-04  7.08783538E-04  5.81125322E-04  9.23325366E-04       0.00217386       0.00115984  4.52945795E-04  2.39884013E-04  2.11530797E-04  2.76785051E-04  3.62426642E-04  2.93222961E-04  7.59076677E-05  2.46350600E-05  9.60181048E-06  1.78453209E-05  1.03128212E-05  8.58889280E-06  3.08704584E-05  3.08704584E-05
    3.08704584E-05  3.08704584E-05  1.15214371E-04  2.54346534E-04  9.25381024E-05  9.61452038E-05  9.21984645E-05  3.91305774E-05  6.45436130E-05  1.75470305E-04  1.36944188E-04  6.15441562E-05  1.10466222E-04  4.74550481E-04  9.85560527E-04       0.00143576       0.00212741       0.00115737  7.03883998E-04  4.01909619E-04
    1.05801365E-04  4.93929793E-05  1.62454322E-05  9.83337949E-06  1.96161741E-05  3.94977387E-05  3.29846780E-05  1.00011547E-05  3.35370128E-06  3.99037506E-06  1.20006430E-05  7.38083212E-05  3.42273407E-04  6.11571696E-04  3.43637332E-04  2.38882903E-04  9.34059712E-04       0.00116837  6.02069395E-04  2.58793535E-04
    1.36147798E-04  8.19989087E-05       0.00173394       0.00121325  5.20391127E-04       0.00201397       0.00608867       0.00396010  6.97941716E-04  3.42305141E-04  4.82240868E-04  6.05533998E-04  5.11411087E-04  4.30715671E-04  4.25102613E-04  4.77081244E-04  2.21856309E-04  1.71852788E-04  6.22748207E-04       0.00107771
    4.36337999E-04  6.73083203E-04  3.17409735E-04  3.97022004E-04  1.50575740E-04  6.11780461E-05  4.34416354E-05  3.65613205E-05  3.86431965E-05  1.53296316E-04  2.81090652E-04  3.79302252E-04  5.00277701E-04  8.64057108E-04       0.00126716       0.00168968       0.00135398  4.60090237E-04  2.93952011E-04  3.60561094E-04
    9.03772689E-04       0.00110529  7.50085971E-04  2.78418210E-04  2.65101649E-04  4.42458865E-04  6.79748493E-04       0.00181672       0.00159384  6.60366869E-04  2.23886300E-04  1.32558929E-04  1.74475619E-04  2.89846786E-04  3.69952120E-04  1.38503477E-04  5.26294827E-05  1.37237280E-05  1.65564422E-05  1.43726736E-05
    8.23256308E-06  3.61360307E-05  1.04856570E-04  3.33883387E-04  1.17888424E-04  5.72943617E-05  1.22604175E-04  6.31490132E-05  3.89108918E-05  1.14046797E-04  9.28269855E-05  6.14804467E-05  6.63515641E-05  5.05458721E-04       0.00151633       0.00235202       0.00205036       0.00123804  6.20896412E-04  3.98190198E-04
    1.99263176E-04  6.16648357E-05  2.24978466E-05  1.02543489E-05  1.07018164E-05  2.54954249E-05  3.10260741E-05  8.93989431E-06  3.60543035E-06  1.94401593E-06  5.04333604E-06  2.50320073E-05  1.68374421E-04  6.05263022E-04  3.39087829E-04  1.73525333E-04  3.98632988E-04       0.00144264  7.33539874E-04  3.69106653E-04
    1.86601268E-04  1.10161468E-04  6.65501114E-04       0.00220804  7.29073554E-04       0.00128957       0.00479934       0.00695917       0.00185363  4.00226476E-04  3.59103273E-04  4.25861113E-04  6.11050612E-04  5.10922161E-04  6.15767224E-04  6.31620169E-04  4.93026308E-04  1.64290849E-04  4.59635379E-04  9.99055418E-04
    6.83774687E-04  5.02568501E-04  4.65354357E-04  4.84212797E-04  2.82737822E-04  6.39103640E-05  4.45253590E-05  3.46678408E-05  3.16778728E-05  1.43892474E-04  4.19237833E-04  4.16230868E-04  5.13096691E-04  6.04986050E-04       0.00121084       0.00156411       0.00130555  7.29799725E-04  3.04254785E-04  2.42606302E-04
    4.54282394E-04       0.00119910  5.45170738E-04  3.66899751E-04  1.35094132E-04  2.34757944E-04  3.56215402E-04       0.00128520       0.00206564  7.86932890E-04  2.85922955E-04  1.15433738E-04  1.79789276E-04  2.23940986E-04  3.01525478E-04  2.99854185E-04  9.74176736E-05  3.39894185E-05  2.02655145E-05  2.31318849E-05
    8.83820716E-06  3.28374100E-05  1.05880502E-04  3.07496404E-04  1.88169260E-04  4.98470605E-05  9.73342908E-05  8.77660576E-05  3.83783307E-05  7.42107646E-05  7.14669230E-05  6.17522532E-05  3.84702406E-05  3.47966037E-04       0.00166793       0.00338710       0.00262861       0.00132424  4.89117887E-04  2.42754956E-04
    2.49591065E-04  9.16698575E-05  3.91786106E-05  1.37498821E-05  7.96526791E-06  2.23824422E-05  3.21059241E-05  1.33085350E-05  4.66413024E-06  1.45655750E-06  2.69262776E-06  1.44639338E-05  6.80737566E-05  3.94860674E-04  2.71897457E-04  1.22538583E-04  1.41636164E-04  9.15501876E-04  6.85677094E-04  4.86982367E-04
    2.46822349E-04  1.16124381E-04  2.49707789E-04       0.00146537       0.00142921  8.36990069E-04       0.00343694       0.00653147       0.00315297  6.42054089E-04  3.19327280E-04  2.67132832E-04  4.39771013E-04  6.04649914E-04  6.25394099E-04  9.41014330E-04  8.05855285E-04  2.19178853E-04  3.81172158E-04  8.17989117E-04
         0.00112110  5.11884837E-04  9.98906317E-04  4.02250152E-04  4.78238356E-04  8.39009593E-05  5.31976698E-05  3.72442516E-05  3.35714504E-05  1.07207121E-04  4.82541072E-04  4.71879095E-04  6.05335643E-04  4.71804543E-04       0.00121872       0.00141198  9.49087079E-04  7.97344431E-04  4.99218839E-04  2.23180318E-04
    2.83955395E-04  6.38235465E-04  4.96641099E-04  4.85803122E-04  1.14764258E-04  1.56839680E-04  2.19839208E-04  7.75676070E-04       0.00179729       0.00107163  3.81837760E-04  1.66065977E-04  1.78470467E-04  2.13765631E-04  2.45926898E-04  3.72596725E-04  1.61668480E-04  9.68062138E-05  3.39464975E-05  2.89718599E-05
    1.81561103E-05  2.97315526E-05  8.28149456E-05  3.03411758E-04  1.93477915E-04  7.91909878E-05  8.55438331E-05  1.01892173E-04  5.11490935E-05  5.16089025E-05  5.36164764E-05  5.01886495E-05  5.25586770E-05  1.57675085E-04       0.00145023       0.00458679       0.00372696       0.00191674  5.25565470E-04  1.74340107E-04
    1.55416879E-04  1.26575107E-04  7.50429073E-05  2.83623282E-05  1.23142370E-05  2.34174439E-05  4.20340286E-05  1.85052086E-05  6.16224386E-06  2.30727318E-06  2.03763176E-06  1.02159116E-05  4.45333779E-05  1.89008717E-04  2.09624082E-04  1.02841295E-04  6.84359655E-05  2.75184528E-04  5.24266142E-04  3.74992832E-04
    2.75478380E-04  9.92430154E-05  1.56512206E-04  7.98876129E-04       0.00173306  9.40714345E-04       0.00164244       0.00446092       0.00404857  9.98057622E-04  4.01514338E-04  2.15401226E-04  2.41966170E-04  5.97994934E-04  8.10987951E-04       0.00140864  9.45455150E-04  3.72994420E-04  2.44929379E-04  5.67408124E-04
         0.00123505  8.48624547E-04       0.00116458  7.03225953E-04  5.37135276E-04  1.45879378E-04  5.74340262E-05  3.91221755E-05  4.43039606E-05  7.62456812E-05  5.69002020E-04  5.65758559E-04  6.33796791E-04  5.72323439E-04       0.00111675       0.00126853  7.30108970E-04  4.54310187E-04  4.06811837E-04  2.63665243E-04
    2.14570050E-04  3.81161181E-04  5.25056170E-04  5.09691892E-04  2.25685347E-04  1.72960508E-04  2.25951257E-04  3.98573902E-04       0.00165044       0.00108379  4.66582570E-04  2.60958019E-04  1.65159593E-04  2.14036576E-04  2.60176499E-04  2.63154398E-04  2.38315220E-04  1.57758462E-04  8.73701199E-05  3.83754723E-05
    3.34997620E-05  3.37922143E-05  8.65678803E-05  1.96081321E-04  3.44430234E-04  1.11881679E-04  8.99428070E-05  1.13530133E-04  5.07245605E-05  5.19547765E-05  4.10918456E-05  4.51936974E-05  5.94397836E-05  1.04322464E-04  9.21458940E-04       0.00400013       0.00532704       0.00327002  6.83367818E-04  1.56718223E-04
    9.64959264E-05  1.07441978E-04  9.77239625E-05  8.56014358E-05  2.41238775E-05  2.73858329E-05  5.41333248E-05  2.98229715E-05  9.96398726E-06  3.48650837E-06  2.97845302E-06  5.71942808E-06  3.77294782E-05  1.18125869E-04  1.37682365E-04  7.37774211E-05  4.64357975E-05  1.11115587E-04  2.77092164E-04  2.30331240E-04
    2.17985851E-04  1.13497692E-04  1.28257278E-04  4.96583377E-04       0.00117094       0.00122136       0.00148525       0.00307019       0.00388258       0.00165407  4.25406033E-04  2.78832479E-04  1.57912464E-04  3.70775548E-04  8.86891279E-04       0.00159679       0.00130820  7.60430391E-04  2.59982384E-04  4.17882104E-04