# File generated by Flopy version 3.6.0 on 05/08/2024 at 11:31:22.
BEGIN options
END options

BEGIN griddata
  icelltype
    CONSTANT  0
  k
    INTERNAL  FACTOR  1.0
         0.01212297       0.00133634  1.69470216E-05  2.37188938E-04  9.11529389E-04  1.18802398E-04  3.82361723E-04       0.00143998       0.00368119  1.38007607E-04  2.23516659E-04  1.34852075E-04  6.93455070E-05  3.97724050E-05  3.13851427E-04  5.36583277E-04       0.00173989       0.00481993       0.00308944       0.00146827
         0.00114516  9.42964545E-05  1.10492981E-04       0.00141437  6.00469581E-04  1.80858065E-04  5.08499427E-05  2.49956652E-04  8.84035936E-05  2.22897519E-04  3.60520117E-04  3.82740133E-04  2.45808368E-04  1.56429045E-04  4.73300480E-05  2.60016033E-06  2.05640935E-05       0.00285445       0.00494026       0.00146643
    7.35595617E-05  4.37495506E-05  5.57000047E-04  2.84202955E-04       0.00442797       0.00151657       0.00103687       0.00448677       0.00273407       0.00242158  3.01794999E-04  1.86753124E-04       0.00514615       0.00523450       0.00147189  1.71414842E-04  6.09711275E-05  2.85351389E-05  2.40133109E-04  6.62312660E-05
    7.75735834E-05  4.78593096E-04  2.09301016E-04  1.42818980E-04  4.54034244E-05  1.15514671E-04  1.68338318E-04  1.24794601E-04  2.66417376E-04  6.18779729E-05  5.87094626E-04       0.00163601       0.00154969  3.84609757E-04  2.75952086E-05  9.81115277E-05  8.70403806E-04  1.66856936E-04  9.74658556E-05  1.15038720E-04
    1.65370326E-04  8.55457863E-05  3.25298284E-05  6.22421310E-05  2.80649702E-04       0.00151319       0.00138079       0.00116883       0.00199625  7.56316055E-04  1.65290564E-04  5.39497989E-05  3.74346280E-04  7.89227359E-04       0.00133746       0.00126169       0.00105783       0.00357696  8.98277710E-04       0.00214240
         0.00403901       0.00375189  7.13378841E-05  8.49800709E-05       0.00177626  2.66211802E-04  3.70835514E-04  7.85587419E-04       0.00439633       0.00141487  5.89388007E-04  2.08548142E-04  5.99950795E-05  4.23121151E-05  5.00496190E-05  9.03475065E-04  5.87675346E-04  4.08673721E-04       0.00205404  8.56551991E-04
         0.00111425  2.52522949E-04  5.18003858E-05  4.11524818E-04       0.00580137  3.22760287E-04  1.13561149E-04  4.68542382E-05  2.21934002E-04  3.89829754E-04  3.00511347E-04  2.28831162E-04  1.33851250E-04  1.21390737E-04  9.69717899E-05  8.77625817E-06  1.09923328E-05  4.44254360E-04       0.00304010       0.00471425
    1.14075218E-04  5.64996990E-05  9.98063383E-05  2.41266489E-04       0.00281657       0.00510199  8.46947243E-04       0.01112117       0.00266287       0.00146828  8.23282144E-04  2.69557716E-04       0.00181318       0.01745087       0.00419595  6.48272265E-04  1.03413066E-04  1.85446418E-05  1.29891052E-04  7.37445057E-05
    9.09187954E-05  4.22657198E-04  2.21135814E-04  1.06289703E-04  6.88284124E-05  1.09718058E-04  1.90359571E-04  4.42379320E-05  3.07471504E-04  4.23821975E-05  1.65650178E-04       0.00476524       0.00483969  5.08557412E-04  8.27659411E-05  1.26143770E-04  7.59333354E-04  9.05823732E-04  4.27594114E-04  1.40809217E-04
    2.29346932E-04  1.19856729E-04  7.44160342E-05  1.53195811E-04  1.40317679E-04  5.54788032E-04  4.89267888E-04       0.01031530       0.00386318       0.00155786  2.00306284E-04  8.05697474E-05  1.10235745E-04       0.00239170       0.00172251  9.13993878E-04       0.00108914       0.00329221  6.92678827E-04  7.42151499E-04
         0.00100805       0.00506334  8.15257773E-04  5.48244750E-05  4.07967679E-04       0.00171448  1.17550309E-04  6.61294620E-04       0.00448128       0.00256844  7.56792409E-04  5.73846586E-04  1.93824360E-04  4.05410026E-05  4.25982194E-05  1.23101971E-04  2.51123513E-04  3.86469935E-04  8.60556067E-04  6.77721962E-04
    4.01658227E-04  1.63653998E-04  7.94324632E-05  9.57372488E-05       0.00129832  5.79521585E-04  3.22702720E-04  1.71553901E-05  1.20778503E-04  4.52061579E-04  2.63249990E-04  3.48993606E-04  9.46997070E-05  9.96727108E-05  6.95555942E-05  1.90155685E-05  6.70455952E-06  1.00812155E-04       0.00163406       0.00136776
    2.02409878E-04  8.04182955E-05  5.59168904E-05  2.09684178E-04  5.53648610E-04       0.01269439       0.00205004       0.00317024       0.00342677  7.60761627E-04       0.00100602  4.77870262E-04  9.43880673E-04       0.00776140       0.00735061  9.39645386E-04  1.33947087E-04  4.46013143E-05  4.62494348E-05  1.66494173E-04
    4.79553291E-05  2.25687650E-04  2.43719534E-04  4.32292976E-05  6.59073506E-05  1.11180686E-04  1.51033731E-04  1.13494326E-04  1.57666102E-04  4.40247306E-05  1.52081694E-05       0.00252856       0.01140087       0.00184491  4.33574252E-04  9.59925645E-05       0.00119869       0.00332296       0.00121190  2.77601805E-04
    1.62632976E-04  2.23037893E-04  1.48948486E-04  2.00166880E-04  3.23681647E-04  2.79973976E-04  2.22937158E-04       0.00524563       0.01723516       0.00124774  3.18384869E-04  2.91832921E-04  5.42473399E-05       0.00135184       0.00218215  7.31308730E-04  8.14203450E-04       0.00228433       0.00103443  2.65756686E-04
         0.00160481       0.00164300       0.00106764  1.95268737E-04  8.04751666E-05       0.00175429  1.29936891E-04  2.89274175E-04       0.00183867       0.00364721       0.00190553  8.23524635E-04  6.29012675E-04  7.64808596E-05  7.78510395E-05  1.72327171E-05  1.24306744E-04  2.29578371E-04  2.48472307E-04  4.07888989E-04
    3.81339199E-04  1.48907654E-04  3.86477098E-05  4.11508814E-05  1.42597690E-04  8.59905093E-04  1.72457623E-04  4.06448992E-05  1.97223796E-05  3.03554913E-04  4.83397571E-04  3.31716410E-04  1.33655621E-04  6.42311235E-05  6.81986019E-05  1.71589145E-05  7.93286108E-06  3.65884389E-05  3.85009695E-04  4.75438087E-04
    1.83510584E-04  3.18147682E-05  5.36125291E-05  1.01853368E-04  2.22069535E-04       0.01263089       0.00508471  4.42822295E-04       0.00175886  5.02702477E-04       0.00104174       0.00135251  7.69816817E-04       0.00131691       0.00584187       0.00133335  1.03083347E-04  1.56992401E-04  1.76862317E-05  1.07538864E-04
    1.81742348E-05  1.42824726E-04  9.12130207E-05  6.82371518E-05  4.64243788E-05  7.32243882E-05  3.72885690E-04  1.96457192E-04  1.29684072E-04  9.33436397E-05  4.48647883E-06  5.44954944E-04       0.00388112       0.00477430  4.74314204E-04  2.87982108E-04  8.73924032E-04       0.00311603       0.00394533       0.00150745
    1.04801425E-04  2.51868355E-04  2.40218791E-04  1.98415272E-04  5.80204964E-04  3.69095651E-04  1.59265013E-04  6.41854593E-04       0.04559746       0.00161347  3.30494909E-04  4.22390520E-04  7.57510491E-05  1.59506901E-04       0.00250473  3.30730716E-04  5.21847115E-04       0.00252494       0.00137687  4.04656124E-04
    5.37100079E-04       0.00166872       0.00146244  4.16621413E-04  8.89813856E-05  1.40049972E-04  3.79449402E-04  7.62881366E-05  7.63580059E-04       0.00317120       0.00275133  8.53236405E-04       0.00232184  4.37537676E-04  1.27247219E-04  1.69098421E-05  4.35518528E-05  7.22390674E-05  1.86655194E-04  2.40306318E-04
    7.37543795E-04  2.17929003E-04  2.16692924E-05  3.94111823E-05  1.01507647E-04  6.31002876E-04  2.23429329E-04  1.51767881E-04  1.75826728E-05  9.94910523E-05  3.88453550E-04  2.31978176E-04  2.14460678E-04  1.54246724E-04  4.67032101E-05  2.40671286E-05  8.31519016E-06  2.97036801E-05  1.33452848E-04  1.43639884E-04
    1.39880074E-04  2.62573815E-05  2.54503973E-05  7.61067181E-05  2.89788859E-04       0.00461589       0.01968314  7.07256625E-04  4.32580955E-04  4.09275442E-04       0.00147427       0.00248782       0.00129494  3.35894901E-04       0.00380323       0.00115318  1.77493957E-04  9.46192872E-05  2.09277519E-05  4.45141150E-05
    4.68875958E-05  5.07011572E-05  8.19421764E-05  6.23892462E-05  3.58655264E-05  1.45334284E-04  3.10340106E-04  3.68855749E-04  1.33710392E-04  1.70907882E-04  6.93263837E-06  7.64876568E-05  9.49517901E-04       0.00190609  6.62133198E-04  6.08086387E-04  7.69283358E-04       0.00250853       0.00562451       0.00282562
    1.86220129E-04  5.81120711E-05  1.70913269E-04  7.43352852E-04  2.44529858E-04  5.09140720E-04  3.54633407E-04  1.94604088E-04       0.00680870       0.00324559  2.16496520E-04  1.68331265E-04  7.36650306E-05  6.40433706E-05  7.74174281E-04  2.92384552E-04  1.58474236E-04  9.43264064E-04       0.00124799       0.00121923
    2.33184991E-04       0.00136946       0.00274382  5.91392645E-04  1.73407338E-04  3.49224634E-05  1.44280721E-04  9.09671803E-05  3.22925942E-04       0.00164582       0.00275938       0.00105224       0.00195384       0.00149892  9.84050372E-05  3.06769252E-05  5.33385235E-05  1.29801167E-04  2.16185296E-04  2.19092819E-04
    8.89533520E-04  2.58434634E-04  8.15528887E-05  2.60932055E-05  2.86522663E-04  2.04900999E-04  4.03647088E-04  2.44157089E-04  4.22939382E-05  2.79182978E-05  1.54400488E-04  3.85173246E-04  7.67782359E-04  3.84163943E-04  9.37881887E-05  4.71610852E-05  3.73662689E-06  2.14691761E-05  1.59045330E-04  1.12536572E-04
    1.53242856E-04  5.83514523E-05  1.38789466E-05  1.11566253E-04  1.77989322E-04       0.00304570       0.01942305       0.00167490  1.45167256E-04  2.95783643E-04       0.00149239       0.00381154       0.00126663  4.16997466E-04       0.00137470       0.00215291  1.66099755E-04  7.59445375E-05  4.35273831E-05  1.80521110E-05
    5.78102998E-05  9.29214555E-05  8.64639778E-05  7.82396609E-05  1.91848063E-05  3.40052913E-04  3.22532592E-04  4.41582919E-04  4.31601062E-04  2.05816595E-04  3.93401687E-05  5.82019224E-05  4.75316256E-04  3.48269846E-04  7.17634809E-04       0.00140103       0.00131985  9.08795859E-04       0.00225236       0.00252368
    2.49781101E-04  4.12928961E-05  3.94436320E-05  6.54641708E-04  2.40974457E-04  2.53008083E-04  1.84079357E-04  1.42544326E-04  5.80213639E-04       0.00242986  5.21620690E-04  4.15222496E-05  5.44305291E-05  5.09006754E-05  2.25462713E-04  2.95276282E-04  8.99860422E-05  2.16241321E-04  8.02567137E-04  7.85793425E-04
    9.74048138E-05  6.26123905E-04       0.00125737       0.00169189  4.33961459E-04  3.47778779E-05  4.16519694E-05  4.78269282E-05  3.25880375E-04  7.33558865E-04       0.00166680       0.00122782  6.39781450E-04       0.00251086  1.32390596E-04  4.37292009E-05  4.82313611E-05  1.28555292E-04  3.63287663E-04  1.21992378E-04
         0.00122635       0.00146202  1.22538732E-04  1.70665211E-05  1.33753359E-04  1.71353039E-04  6.34374953E-04  2.32558595E-04  6.29018270E-05  2.94556942E-05  7.88946639E-05  1.56753911E-04       0.00126374       0.00126997  4.36431250E-04  9.69532751E-05  1.16408734E-05  5.46103275E-06  1.75503989E-04  1.43681117E-04
    2.58910080E-04  1.21497502E-04  4.37521647E-05  9.31759941E-05  1.80979821E-04  9.32372492E-04       0.01082084       0.00173854  1.11103632E-04  2.56195661E-04       0.00108428       0.00335736       0.00231080  8.21132105E-04       0.00167327       0.00330233  7.35309531E-04  9.53600482E-05  2.67722741E-05  1.31092249E-05
    3.82000530E-05  2.74494737E-04  1.09387886E-04  1.49817544E-04  2.14102205E-05  1.48711104E-04  8.18116647E-04  4.48266049E-04  9.01687257E-04  2.89745715E-04  5.23321829E-05  1.91782865E-04  4.82868466E-04  2.17365260E-04  3.51717073E-04       0.00139033       0.00240151  3.32841995E-04       0.00150051       0.00265024
    1.99631561E-04  2.79802945E-05  1.15727901E-05  7.06336862E-05  3.31785645E-04  1.35220379E-04  7.56865050E-05  1.97912483E-04  2.90516047E-04  4.22515997E-04  3.50488057E-04  9.04227083E-05  1.32879611E-05  4.80293035E-05  2.30408154E-04  5.62739804E-04  7.66994735E-05  6.49340306E-05  2.40515292E-04  1.60363213E-04
    6.11149854E-05  9.41919612E-05  7.27572713E-04       0.00114736  9.37365290E-04  1.83898733E-04  1.09022994E-05  1.66454008E-05  2.39430966E-04  6.47551305E-04       0.00136159  4.58795175E-04  4.38568454E-04       0.00106388       0.00112160  4.11545282E-05  6.22120540E-05  1.31035391E-04  3.20517839E-04  1.54676887E-04
    6.13402619E-04       0.00462088  2.12196450E-04  5.58264221E-05  3.55649481E-05  2.62757607E-04  3.66566305E-04  5.08119878E-04  1.04365668E-04  3.77977924E-05  3.92797049E-05  2.76092198E-05  8.35248479E-04       0.00139457  7.97152955E-04  6.12508227E-04  1.47850905E-05  6.41040133E-06  4.55426006E-05  2.11991103E-04
    3.20520836E-04  1.25650926E-04  9.76467074E-05  2.34593644E-04  4.14527169E-04  2.52847775E-04       0.00301372       0.00139632  5.97021341E-05  1.45318869E-04  2.92918425E-04       0.00138306       0.00120278       0.00178776       0.00165424       0.00614730       0.00274949  8.93054858E-05  1.50342059E-05  2.27054336E-05
    1.40943132E-05  2.81195747E-04  5.90827223E-04  1.22765772E-04  2.80669956E-05  4.37409519E-05  5.90331796E-04  4.02952751E-04  3.11967326E-04  2.12404248E-04  8.95646169E-05  3.12874857E-04  7.55902383E-04  2.55763884E-04  1.21259819E-04       0.00137149       0.00322889  2.64217402E-04  3.72829330E-04       0.00274681
    5.34642986E-04  3.88986732E-05  9.60408163E-06  1.31060909E-05  1.48068723E-04  7.09208722E-05  4.17017640E-05  1.31330808E-04  5.30119799E-04  1.38057822E-04  1.50950999E-04  5.09756181E-04  1.60318780E-05  5.91080149E-05  2.46814439E-04  5.70426145E-04  1.08940244E-04  4.04342652E-05  1.11285416E-04  1.29689401E-04
    9.84316778E-05  2.26506591E-05  1.25108928E-04  2.86424322E-04  3.00191708E-04  2.27167105E-04  2.46476760E-05  1.94238724E-05  1.34609490E-04  5.83443700E-04       0.00113620  2.24759787E-04  3.63489349E-04  7.50914510E-04       0.00156618  2.15793738E-04  1.68680059E-04  1.55505750E-04  2.12078646E-04  2.26353770E-04
    2.05734055E-04       0.00227267       0.00104667  3.36298766E-04  3.21277860E-05  2.11710524E-04  6.14678486E-04       0.00241311  1.74581580E-04  3.20023895E-05  2.49973355E-05  1.32696011E-05  4.86286588E-05       0.00205508  8.91812986E-04       0.00287923  3.80137654E-05  5.77287013E-06  1.28674882E-05  3.66423432E-04
    2.19691897E-04  2.40170541E-04  6.26893154E-05  4.09442159E-04  8.52316823E-04  1.56776469E-04  2.08021024E-04       0.00291904  2.23321793E-05  5.51259922E-05  3.97997101E-05  6.99835282E-04  4.11789776E-04       0.00108283       0.00168210       0.00746560       0.00665439  2.13834777E-04  1.62158845E-05  1.43986100E-05
    1.16040420E-05  1.02968663E-04       0.00186303  1.48869030E-04  5.15152480E-05  1.24496744E-05  1.30440308E-04  5.32496370E-04  3.31779361E-04  2.06269723E-04  7.25291253E-05  3.45208149E-04       0.00199772  2.87250487E-04  1.18538548E-04  5.24781117E-04       0.00426495  5.12802387E-04  7.18542461E-05       0.00268335
         0.00123243  1.03497631E-04  1.04312295E-05  1.31277564E-05  3.87284463E-05  4.34583278E-05  9.66388354E-05  5.02348565E-05       0.00178418  6.41535943E-05  6.46616152E-05  3.11587339E-04  1.32624562E-04  5.49001210E-05  2.48806385E-04  4.17427251E-04  1.62485712E-04  7.58553114E-05  7.79363161E-05  8.86587890E-05
    1.01108497E-04  2.01045774E-05  8.54539936E-06  8.72806243E-05  4.73296761E-05  8.51762381E-05  3.90405667E-05  1.58009054E-05  8.18301958E-05  9.57139442E-04  9.30959929E-04  4.38388267E-04  1.38426931E-04  6.90569866E-04       0.00114973  6.78616856E-04  1.67385306E-04  2.66999389E-04  1.24714585E-04  4.27102441E-04
    1.09484708E-04  6.98227577E-04       0.00293574  3.93407039E-04  7.59003099E-05  3.45803471E-04       0.00126276       0.00365069  6.54750296E-04  6.98847525E-05  3.36988745E-05  5.78752779E-06  1.34194203E-05  3.38646947E-04       0.00215536       0.00414340  9.71367852E-04  5.71598440E-06  5.38080620E-06  1.62906730E-04
    4.16067489E-04  1.93775967E-04  8.10763032E-05  1.99394360E-04       0.00116191  1.74974487E-04  4.69512369E-05  6.64018034E-04  5.69375627E-05  3.04131274E-05  2.93300505E-05  2.79297114E-04  1.35923194E-04  3.74977301E-04       0.00146653       0.00253186       0.00290184       0.00138777  1.46934907E-05  8.55250153E-06
    7.83199421E-06  7.74918562E-05       0.00205888  5.32509055E-04  6.96957514E-05  1.08829280E-05  2.60576989E-05  5.63483011E-04  4.01191220E-04  3.19002655E-04  8.33909282E-05  4.48830330E-04       0.00388678       0.00117396  1.09292896E-04  2.70935980E-04       0.00678183  9.98604924E-04  6.38124130E-05  3.86689131E-04
         0.00248979  1.59137610E-04  1.21578973E-04  2.09501194E-05  4.81679551E-05  3.34203892E-05  1.72581491E-04  1.06407140E-04       0.00164024  4.40278806E-04  3.05634084E-05  8.07779107E-05  2.92328715E-04  9.30383464E-05  3.63528278E-04  4.25797041E-04  1.81526698E-04  1.27296778E-04  5.78966041E-05  4.57579577E-05
    4.35879160E-05  3.15387427E-05  2.25797487E-06  1.15934743E-05  2.35355333E-05  3.05842466E-05  2.82956846E-05  1.22939776E-05  4.90066712E-05  4.94249795E-04  7.73994939E-04       0.00120130  9.79169640E-05  5.02636782E-04       0.00114659       0.00100423  2.35171003E-04  2.29324669E-04  1.11264341E-04  4.39879665E-04
    4.39879665E-04  4.39879665E-04  4.39879665E-04  1.34226238E-04  1.81876479E-04  9.59433619E-04       0.00192879  1.76923626E-04  1.04175836E-04       0.00213455       0.00251771       0.00296851  1.34614367E-04  3.04071910E-05  4.40419578E-06  7.54080349E-06  9.16227791E-05  5.58842258E-04       0.01266205       0.00699486
    3.05328227E-05  8.84016299E-06  2.72842339E-05  6.92067542E-04  1.07640303E-04  1.28305071E-04  4.58395172E-04  5.48267919E-04  1.99822615E-04  5.90247087E-05  6.41864230E-05  3.46047332E-04  1.89600234E-05  6.11487601E-05  1.66727630E-04  1.39269729E-04  2.27561058E-04  5.89763274E-04       0.00114399       0.00152498
         0.00138921  9.72552310E-05  5.72230838E-06  5.72230838E-06  5.72230838E-06  5.72230838E-06  8.73846581E-06  6.50393605E-05       0.00401951       0.00105100  6.29878338E-05  3.28131038E-05  8.64273494E-06  2.07094097E-04  6.03449819E-04  8.57488284E-04  2.80325549E-04  6.22412550E-04       0.00616696       0.00344159
    1.98900117E-04  2.25635922E-04       0.00424085       0.00189481  1.79192373E-04  1.18559313E-04       0.00115132  4.28604241E-04  4.68290816E-04  7.20999823E-05  5.84406834E-05  4.51376595E-05  1.54184155E-04       0.00125148       0.00134178       0.00455571  8.90237597E-05  3.89119648E-05  2.00813322E-04  9.54083059E-05
    4.81463251E-04  2.88375008E-04  1.40087268E-04  1.39591786E-04  6.53651455E-05  2.04960004E-05  1.91662238E-05  1.82973310E-05  1.84009753E-05  9.34631580E-07  2.05077808E-05  1.32762235E-05  4.17466352E-05  1.50408938E-05  2.22082196E-05  1.75379935E-04       0.00102802       0.00288150  4.13178350E-04  2.22143219E-04
    4.29026104E-04  5.21069123E-04  6.07380886E-04  9.92873789E-05  1.15394688E-04  1.15394688E-04  1.15394688E-04  1.15394688E-04  2.01939644E-04  2.01939644E-04  2.01939644E-04  2.01939644E-04  2.01939644E-04  2.01939644E-04  2.01939644E-04  2.01939644E-04  2.01939644E-04  2.01939644E-04  2.01939644E-04  2.01939644E-04
    2.01939644E-04  2.01939644E-04  2.01939644E-04  2.01939644E-04  2.01939644E-04  2.01939644E-04  2.01939644E-04  2.01939644E-04  2.01939644E-04  2.01939644E-04  2.01939644E-04  2.01939644E-04  2.01939644E-04  2.01939644E-04  2.01939644E-04  2.01939644E-04  2.01939644E-04  2.01939644E-04  2.01939644E-04  2.01939644E-04
    2.01939644E-04  2.01939644E-04  2.01939644E-04  2.01939644E-04  2.01939644E-04  2.01939644E-04  2.01939644E-04  2.01939644E-04  1.56724088E-04  1.56724088E-04  1.56724088E-04  1.56724088E-04  2.50056107E-04  3.55238967E-04       0.00116239  3.43166039E-04  9.47047836E-05  4.53815071E-04       0.00336368       0.00373535
    2.99258167E-04  7.86323890E-05  1.30519274E-05  5.57561300E-06  2.05541192E-05  3.40964347E-04       0.00517185       0.01147021  1.94708822E-04  1.98566200E-05  1.36917995E-05  5.96818700E-04  2.40328873E-04  4.22403799E-05  5.10424646E-04  7.31238258E-04  1.42324451E-04  2.38484997E-04  2.84293844E-05  4.26029593E-04
    5.47196895E-05  2.16501480E-04  3.40175639E-04  5.21921683E-04  1.04293404E-04  3.27597506E-04  4.00685517E-04  6.04019853E-04  7.25071607E-04  4.38979371E-04  4.38979371E-04  4.38979371E-04  4.38979371E-04  1.20870364E-05  1.20870364E-05  1.20870364E-05  1.20870364E-05  1.20870364E-05  1.20870364E-05  1.20870364E-05
    1.20870364E-05  1.20870364E-05  1.20870364E-05  1.20870364E-05  1.20870364E-05  1.20870364E-05  1.20870364E-05  1.20870364E-05  1.20870364E-05  1.20870364E-05  1.20870364E-05  1.20870364E-05  1.20870364E-05  1.20870364E-05  1.20870364E-05  1.20870364E-05  1.20870364E-05  1.20870364E-05  1.20870364E-05  1.20870364E-05
    1.20870364E-05  1.20870364E-05  1.20870364E-05  1.20870364E-05  1.20870364E-05  1.20870364E-05  1.20870364E-05  1.20870364E-05  1.20870364E-05  1.20870364E-05  1.20870364E-05  1.20870364E-05  1.20870364E-05  1.42992041E-05  1.42992041E-05  1.42992041E-05  1.42992041E-05  3.39778901E-05       0.00203984       0.00104734
    1.42916553E-04  6.32864981E-05  1.16258412E-05  3.97435167E-05  8.22923273E-04  7.05963634E-04  5.39914182E-04  6.49558498E-04       0.00482222       0.00771956       0.00121796  1.85565524E-04  6.21840544E-04       0.00339233  8.59785668E-04  2.18270490E-04  3.74010271E-04  7.15248068E-04  4.36160186E-04  2.31201084E-04
    1.27082042E-04  9.47301447E-05  2.54288877E-04       0.00433985       0.00200623       0.00350395  7.16403121E-04  1.71204158E-04  1.78995070E-04  9.92087032E-05  1.46604090E-04  1.55792258E-04  2.60601049E-04  5.47652591E-05  1.69196628E-04  2.18799786E-05  1.49225995E-05  8.16571150E-06  3.63223615E-05  1.87173377E-06
    1.05868179E-05  1.26900554E-05  9.84228997E-05  3.74309774E-05  1.15516640E-05  5.67689974E-05  6.30915425E-04       0.00221899       0.00284323  1.48818718E-04  1.72261717E-04  1.42539443E-04       0.00138599  2.89163842E-04  8.15915774E-05  1.03982008E-04  1.03982008E-04  1.03982008E-04  1.03982008E-04  3.54917943E-04
    5.23075161E-04  2.72867892E-04  6.00995055E-04       0.00127145  1.35515513E-04  1.80231971E-04       0.00168359       0.00309600       0.00132181  1.77932254E-04  4.54595035E-05  1.12946207E-05  2.02821967E-05  2.87535815E-04       0.00195441       0.04095707  4.24310011E-04  5.93030704E-05  2.22603711E-05  8.92875052E-05
         0.00112793  5.26731137E-05  1.51014902E-04  8.36787957E-04  2.13149140E-04  3.83393612E-04  5.06995570E-05  1.18500713E-04  1.59456484E-04  1.88642288E-04       0.00103355       0.00119306  2.29574449E-04  3.40000400E-04  2.83895855E-04  4.06091559E-04  3.38155181E-04  7.07787454E-04  6.06190828E-05  6.06190828E-05
    6.06190828E-05  6.06190828E-05  1.58543925E-05  1.93114428E-05  4.50798097E-04  6.37936603E-04  1.41644707E-04  9.77562219E-05  3.91995692E-05  7.96531182E-06  3.20295515E-04  3.30715318E-04       0.00154122  6.87283679E-04       0.00206931       0.01336980       0.00290779  6.24001638E-04  2.30584793E-04       0.00195483
         0.00223695       0.00102727  5.53241897E-04       0.00129700  5.01867656E-04  4.83650267E-04  2.97558415E-04  3.39720686E-04  5.54281819E-04       0.00542206       0.01423205       0.00161879       0.00225409  4.06038406E-04  1.96185357E-04  5.17723391E-04  1.58155442E-04  1.27168704E-04  7.55969919E-05  5.25860894E-05
    1.85621039E-04  4.20740369E-05  1.09857899E-05  8.32333706E-06  2.28887835E-05  1.93798679E-05  5.70175395E-06  1.93208833E-05  1.03464483E-04  2.12583335E-04  1.29671053E-05  3.30752105E-05  2.91556087E-04       0.00133602       0.00513275  2.14553812E-04  1.53661303E-04  3.08563842E-05  7.69015136E-04  7.63359402E-04
    1.15936272E-04  1.46192237E-04  3.16812642E-04  3.59583340E-04  7.52446325E-04  3.86724636E-04       0.00227631  3.00494190E-04  3.36364638E-04  3.33828814E-04       0.00138435       0.00259884  4.19483253E-04  1.35898906E-04  4.74598326E-05  4.26869147E-05  1.51254551E-04       0.00263495       0.02228678       0.00594239
    4.78595941E-05  6.78257314E-05  1.33805243E-05       0.00101664  3.08346418E-04  5.10454767E-05  2.69470086E-04  4.78504939E-04  2.02543589E-04  1.21468923E-04  1.82328251E-05  1.48534456E-04  1.95146828E-04  7.46408686E-04       0.00162083  8.09169829E-04  4.25059954E-04  4.14609280E-04  1.59120844E-04  1.85212380E-04
    4.72728105E-04  3.58437497E-04  1.97347245E-05  2.91082269E-05  1.30642757E-04  1.84434080E-04  1.70601626E-04  5.80123677E-05  4.19438959E-05  1.43394811E-05  7.17006680E-05  4.27601498E-04       0.00161836  8.00007880E-04       0.00130134       0.00589121       0.00600415       0.00199012  4.12084786E-04  4.72201995E-04
         0.00253094       0.00482398  7.12133728E-04       0.00177270       0.00107042  7.42631780E-04  2.99643006E-04       0.00140941       0.00148225       0.00552863       0.04471715       0.00791704       0.00150135  4.01127926E-04  6.69671601E-04       0.00143248  5.58902573E-04  2.33562700E-04  5.52370299E-05  4.31200229E-05
    8.53560150E-05  7.15948746E-05  3.17450704E-05  4.76498145E-06  1.30184008E-05  7.80638347E-05  1.42373894E-05  4.03461847E-05  1.37576042E-04  4.16431330E-04  6.17066094E-05  3.67114890E-05  1.62731205E-04  2.96495833E-04       0.00280757  3.10232015E-04  3.44262370E-05  4.98215036E-05  1.56263595E-04  8.88922289E-04
    4.13307868E-04  1.23862893E-04  2.28024013E-04  3.07030306E-04       0.00270640  4.28048277E-04  8.88813579E-04       0.00116610  2.80188518E-04  4.80534666E-04  4.61910846E-04       0.00124778       0.00133648  1.78477234E-04  9.15799778E-05  1.10416983E-04  2.09657311E-04       0.00257094       0.00411442       0.02146014
    1.18140396E-04  7.64373955E-05  1.48458603E-05  1.26592852E-04       0.00114632  9.73198616E-05  1.35495952E-04  1.37320181E-04  2.57661549E-04  1.01997565E-04  7.93248122E-06  9.06318408E-05  3.71489565E-04  2.77113378E-04  4.43959300E-04  4.44790934E-04  4.11511905E-04  9.09568790E-04  1.89712848E-04  5.12449007E-05
    1.53226809E-04  4.81625078E-04  1.02045595E-04  7.42177952E-05  6.53268520E-05  9.21131533E-05  1.36705556E-04  3.14053019E-05  6.31217231E-05  3.72143620E-05  2.69576375E-05  8.34173797E-04       0.00215842       0.00142971  4.30075015E-04       0.00137532       0.00863449       0.00199437       0.00117329  1.16204094E-04
         0.00257535       0.00405916       0.00148319  8.78358328E-04  9.89129384E-04       0.00116316  6.86839972E-04       0.00532853       0.00410763       0.01256440       0.01262959       0.01358425  6.26393892E-04  6.04367234E-04  7.49750443E-04       0.00169222       0.00113697  5.14827884E-04  1.93528852E-04  1.04719276E-04
    3.33466090E-05  2.88591054E-05  7.04319375E-05  5.94523346E-06  6.11326434E-06  3.15684852E-05  1.51438114E-04  9.46533217E-05  1.08023771E-04  9.03032717E-04  1.50297944E-04  1.09512223E-04  8.80363495E-05  1.78195432E-04       0.00113791  3.69946623E-04  2.29276412E-05  2.75428275E-05  1.35343455E-04  3.13197551E-04
    2.36043341E-04  3.66483427E-04  4.73095960E-04  5.36876179E-04       0.00148648       0.00136172  4.82531305E-04       0.00108808  3.53097678E-04  5.30058660E-04  3.37689618E-04  4.64638428E-04  9.03548882E-04  3.84471505E-04  1.21792294E-04  1.63032033E-04  1.67321829E-04  6.78219117E-04       0.00300026       0.00972650
    5.49039785E-04  9.30206779E-05  2.82497633E-05  4.87988533E-05  8.81526486E-04  5.34792767E-04  1.06695509E-04  7.35618243E-05  2.95430402E-04  6.93624660E-05  9.37609724E-06  1.75305154E-05  5.06088075E-04  1.43008341E-04  1.33528050E-04  1.37369184E-04  3.94930749E-04  5.68397669E-04  7.12865117E-04  2.46464781E-05
    8.73420601E-05  1.80604198E-04  1.22905175E-04  7.04334809E-05  5.18231041E-05  1.37983672E-04  4.80342233E-05  2.55356509E-05  1.06704887E-05  3.92875958E-05  6.59558085E-05  6.30716323E-04       0.00235221       0.00171399  2.97773134E-04       0.00116600       0.00407642       0.00128276       0.00159161  1.30498880E-04
    5.92853364E-04       0.00207385       0.00123167  5.69669658E-04  6.56803463E-04  4.30218549E-04       0.00132997       0.00424714       0.00940225       0.00831305       0.01089692       0.00836311  2.34760485E-04  2.00946456E-04  7.79022775E-04  6.77738944E-04       0.00141220  4.58137225E-04  3.04438794E-04  8.33496299E-04
    2.66834881E-05  3.07021999E-05  1.66177980E-04  2.26226021E-05  2.92121585E-06  8.17755860E-06  2.70268219E-04  7.40058922E-04  7.86967652E-05       0.00110525  2.42568431E-04  2.58941637E-04  1.07700600E-04  1.14192431E-04  2.96970883E-04  4.05367650E-04  1.75646824E-05  7.13711717E-06  7.17009516E-05  1.26531938E-04
    1.76423820E-04  7.53951908E-04       0.00111222  5.66325710E-04  7.42367877E-04       0.00342420  9.45111642E-04  6.88563522E-04  3.10726895E-04  3.88473067E-04  3.75901625E-04  3.37484174E-04  7.28152392E-04  3.85735572E-04  1.79860619E-04  2.61576823E-04  1.74856396E-04  7.46804088E-04       0.00285275       0.00447359
    7.81269861E-04  1.08865536E-04  2.51468060E-05  5.66345355E-05  5.59331905E-04       0.00123902  4.82012021E-04  2.02688801E-04  1.69816152E-04  8.00552517E-05  8.89165031E-06  5.08255229E-06  2.15646356E-04  3.57287984E-04  2.81609281E-05  7.61669516E-05  1.99153376E-04  2.00581197E-04  6.58124899E-04  6.25106356E-05
    5.88005585E-05  7.61305853E-05  6.19409864E-05  3.29036628E-05  3.73152119E-05  7.77057633E-05  4.28287788E-05  5.25147234E-06  1.01642433E-06  1.56238354E-05  1.12146796E-04  2.79638933E-04       0.00104843       0.00197139  4.28664676E-04       0.00127134       0.00294384       0.00288036  7.49307925E-04  2.81206753E-04
    1.91039717E-04  7.85393964E-04  3.41011082E-04  2.11399920E-04  3.54008493E-04  1.82828761E-04  4.06665261E-04       0.00456678       0.00578921       0.00874816       0.01549556       0.00456147  4.23096678E-04  5.32154859E-05  5.90440026E-04  8.36509318E-04  6.14732236E-04  4.55906335E-04  4.02666886E-04       0.00155021
    4.07034437E-04  1.50703166E-05  3.48045538E-04  6.34300691E-05  4.66374998E-06  4.83540651E-06  1.10163554E-04       0.00136799  1.36058436E-04  3.25520242E-04  5.51764513E-04  2.76306088E-04  1.64054837E-04  1.07935879E-04  1.52860426E-04  1.83227377E-04  1.60550699E-05  4.99407311E-06  2.15300221E-05  5.53497528E-05