# File generated by Flopy version 3.6.0 on 05/08/2024 at 11:31:22.
BEGIN options
  PRINT_OPTION  summary
  COMPLEXITY  complex
END options

BEGIN linear
  LINEAR_ACCELERATION  bicgstab
END linear

