# File generated by Flopy version 3.6.0 on 05/28/2024 at 09:32:29.
BEGIN options
END options

BEGIN griddata
  icelltype
    CONSTANT  0
  k
    INTERNAL  FACTOR  1.0
         0.00229509       0.00524598       0.00117989  2.07062769E-04  3.03624314E-04  6.35304994E-04  9.48599354E-04       0.00207628       0.00157228  8.17414380E-04  6.34064869E-04  8.11180142E-04  4.26310608E-04  5.69865415E-04  4.68128347E-04  2.59350741E-04  3.38000864E-04  1.96419045E-04  1.74459910E-04  1.34612220E-04
    2.06291017E-04  1.10045719E-04  3.05037738E-05  1.92417069E-05  1.75862452E-05  9.93972727E-05  3.65098256E-04  3.09360317E-04  1.31623285E-04  9.33517511E-05  8.80557699E-05  6.86337504E-05  1.21823366E-04  3.40081395E-04  4.51273257E-04  8.51616835E-04  7.49374804E-04  3.09838875E-04  2.64403940E-04  1.93173346E-04
    4.13996643E-04       0.00102742       0.00186303       0.00122913  7.69507270E-04  3.69544144E-04  3.21737774E-04  1.13307510E-04  5.91324427E-05  2.39942417E-05  7.22818754E-05  3.03780366E-04  5.87923296E-04  6.48556740E-04  2.78859459E-04  2.15608847E-04  9.81676384E-05  5.47250398E-05  6.12231713E-05  4.92117758E-05
    1.86624847E-04  4.23050488E-04  6.70646147E-04  2.79578341E-04  1.11408363E-04  2.53580562E-05  8.12880443E-06  4.23881229E-06  7.73635320E-06  1.13449313E-05  3.82926311E-05  6.60705049E-05  2.19633880E-04  3.03994660E-04  5.31496872E-04  5.93976927E-04  3.62982767E-04  2.26722646E-04  2.18812341E-04  2.48883574E-04
    2.97783364E-04  1.41500107E-04  2.42677876E-04  5.34192871E-04  6.67217098E-04  1.82094874E-04  9.06834406E-05  2.73675192E-04  6.06146726E-04  3.55986389E-04  1.80116841E-04  6.46086707E-05  1.03016807E-04  1.83654680E-04  4.15972589E-04  7.23351525E-04  8.43116804E-04       0.00143606  5.82784185E-04  3.53641096E-04
         0.00116176       0.00418316       0.00139885  2.21725331E-04  1.74844517E-04  2.85633823E-04  8.99075483E-04       0.00117579       0.00116109       0.00110398  4.68017961E-04  5.18573727E-04  2.87973030E-04  3.04576898E-04  4.72179523E-04  2.37187776E-04  3.50069953E-04  3.00387958E-04  1.43763788E-04  8.66675281E-05
    1.66979658E-04  1.41552697E-04  5.16942881E-05  1.90184986E-05  9.94657102E-06  3.34084333E-05  2.20678141E-04  4.17032499E-04  3.23361233E-04  1.67655754E-04  1.58999850E-04  1.94456536E-04  2.21451082E-04  3.48745273E-04  4.65319174E-04  7.54617278E-04  9.58361395E-04  4.56913546E-04  1.87328138E-04  1.84035176E-04
    3.64122894E-04       0.00110592       0.00255725       0.00193122       0.00106565  4.77218809E-04  1.79759527E-04  9.86877925E-05  3.77483591E-05  9.18787934E-06  2.98407262E-05  1.53957493E-04  3.83782520E-04  7.29790428E-04  3.88045958E-04  1.14936318E-04  1.26017710E-04  5.03279515E-05  6.50770012E-05  8.01810390E-05
    1.50565349E-04  3.74028547E-04       0.00116873  9.16921325E-04  2.72530326E-04  6.29418172E-05  2.14097212E-05  6.92743071E-06  1.02072055E-05  8.63696056E-06  2.63163065E-05  8.19089855E-05  1.73816803E-04  3.22843792E-04  4.23501392E-04  5.86373100E-04  3.61353593E-04  2.55220615E-04  1.67985820E-04  1.78775756E-04
    2.32816473E-04  1.23931807E-04  1.49070714E-04  2.69375171E-04  4.87537571E-04  3.55269443E-04  8.43018426E-05  1.44644119E-04  4.81501603E-04  5.09670784E-04  2.50158100E-04  1.15823628E-04  1.17111819E-04  1.25266273E-04  2.63982076E-04  6.78738462E-04  8.60496504E-04       0.00130433  7.65124619E-04  2.66799570E-04
    6.80125071E-04       0.00211738       0.00156585  2.77274528E-04  1.03421294E-04  1.87999766E-04  5.89277218E-04       0.00112508       0.00106691       0.00100761  4.79417358E-04  3.37163200E-04  2.73865601E-04  1.78758392E-04  4.49394675E-04  2.82866405E-04  2.81256412E-04  3.93559167E-04  1.63475422E-04  8.32627597E-05
    9.11430899E-05  1.07030113E-04  8.12260337E-05  3.15329089E-05  1.10116595E-05  1.48025480E-05  1.01956092E-04  3.56566900E-04  6.84057992E-04  4.80423879E-04  2.52135245E-04  4.48321788E-04  6.47627084E-04  5.11506752E-04  4.60709354E-04  7.25198950E-04       0.00108796  7.49756577E-04  2.21653544E-04  1.67634847E-04
    2.46293349E-04  8.81982862E-04       0.00200929       0.00353878       0.00194338  7.37354769E-04  1.76048283E-04  7.22400467E-05  2.64967658E-05  9.06015463E-06  1.27849092E-05  8.16296000E-05  2.07459943E-04  8.40711805E-04  4.84486593E-04  1.12298680E-04  1.13783744E-04  4.40772327E-05  5.39577823E-05  1.13951690E-04
    1.45791703E-04  3.54961793E-04       0.00153804       0.00174674  6.51721337E-04  2.03767866E-04  6.25155539E-05  1.97391140E-05  1.12253440E-05  1.45324050E-05  1.93846265E-05  8.54418534E-05  1.64679619E-04  2.50937459E-04  3.15931163E-04  5.14544963E-04  2.69951603E-04  2.49446989E-04  2.09701757E-04  1.13724282E-04
    1.55679621E-04  1.28311242E-04  8.24114266E-05  1.27490732E-04  2.52505630E-04  3.84971081E-04  1.45107325E-04  1.16682228E-04  2.90554367E-04  5.57763381E-04  5.35085015E-04  1.80718023E-04  1.50894484E-04  1.31419540E-04  1.50000302E-04  4.01133439E-04  8.83132759E-04       0.00103466  9.62181089E-04  3.83648017E-04
    6.88070105E-04  9.40592735E-04       0.00118519  3.30755886E-04  8.05420568E-05  1.12630541E-04  3.06097384E-04       0.00120384       0.00111475  6.25019968E-04  4.14387508E-04  2.77576620E-04  2.70342054E-04  1.94290064E-04  2.28712768E-04  4.09857860E-04  2.45637039E-04  2.75971870E-04  1.93023368E-04  1.17220427E-04
    5.42989530E-05  6.01960006E-05  6.85681470E-05  6.17157647E-05  2.20097463E-05  8.81483408E-06  5.90551281E-05  2.51437910E-04       0.00119885       0.00118073  3.97973373E-04  6.16602090E-04       0.00131961  9.23939146E-04  4.32645755E-04  7.71907000E-04  9.99250619E-04       0.00116834  3.39691475E-04  1.31385249E-04
    1.90329184E-04  5.90757461E-04       0.00188682       0.00413422       0.00312023       0.00138560  3.08956432E-04  5.92250460E-05  3.16361383E-05  1.17395473E-05  7.02145769E-06  4.29404268E-05  1.54202548E-04  6.03384647E-04  9.02258638E-04  1.89464112E-04  6.46927239E-05  7.20847638E-05  4.31171380E-05  1.05221762E-04
    1.29539767E-04  2.86626561E-04       0.00110573       0.00279713       0.00110011  5.57072397E-04  1.53775875E-04  5.20420462E-05  2.34680359E-05  2.51738350E-05  2.07488751E-05  6.35022882E-05  1.73039657E-04  1.83236132E-04  2.05883541E-04  2.57359346E-04  2.40039393E-04  2.10384094E-04  1.70162316E-04  1.03235364E-04
    1.19566430E-04  1.20583219E-04  4.73753680E-05  7.58799141E-05  1.30154395E-04  2.33385771E-04  2.02685340E-04  1.26284016E-04  2.74185063E-04  4.93490135E-04  7.75692748E-04  2.87918907E-04  2.20445683E-04  1.58488369E-04  9.34443306E-05  1.59982273E-04  6.41922834E-04  6.63371969E-04  6.78345184E-04  5.99572541E-04
    6.71814848E-04  7.97275815E-04  7.90897351E-04  3.24690805E-04  9.78814063E-05  6.44091481E-05  1.50971059E-04       0.00113091       0.00101229  4.00974077E-04  2.87658298E-04  2.21741462E-04  1.94346144E-04  1.60161323E-04  1.49383346E-04  3.59566765E-04  2.80416401E-04  2.30988422E-04  8.51787083E-05  1.25647987E-04
    5.74452455E-05  2.68069370E-05  4.21158857E-05  7.08150736E-05  4.95483771E-05  1.62514389E-05  3.30756529E-05  1.66169109E-04  9.59236617E-04       0.00195508  7.62728479E-04  7.95711342E-04       0.00179262       0.00171705  4.97742425E-04  5.84735747E-04  9.12292688E-04       0.00156603  4.52899179E-04  1.55848734E-04
    1.32826181E-04  4.26740000E-04       0.00156266       0.00350245       0.00352264       0.00249324  5.86767916E-04  6.58581958E-05  3.79409115E-05  1.63338609E-05  1.09378448E-05  2.57330275E-05  9.72089609E-05  3.84851333E-04       0.00123123  3.49717255E-04  6.00211543E-05  7.25245640E-05  4.34501154E-05  6.61084997E-05
    1.42025113E-04  1.67581587E-04  6.91145041E-04       0.00314268       0.00147503  8.63513561E-04  3.26703966E-04  1.25454996E-04  4.93470291E-05  3.30346588E-05  5.81202131E-05  6.73940605E-05  1.61983567E-04  1.43239416E-04  1.37973528E-04  1.35060005E-04  1.28066789E-04  1.69408186E-04  1.54998455E-04  7.47859823E-05
    8.87297711E-05  1.44855973E-04  3.76834390E-05  4.06123497E-05  6.55534291E-05  1.43832399E-04  1.75648483E-04  1.22342783E-04  2.17698311E-04  5.41807096E-04  7.69278934E-04  5.09393944E-04  2.75987138E-04  1.98269030E-04  7.23921922E-05  7.07602780E-05  3.81502745E-04  5.30816141E-04  5.58634319E-04  7.08265621E-04
    4.45470141E-04  6.74695353E-04  6.32226338E-04  4.76482367E-04  8.75627279E-05  4.99963629E-05  9.96697939E-05  8.58204712E-04  9.56056583E-04  3.37413800E-04  2.12861503E-04  1.48944384E-04  1.22836688E-04  9.13539060E-05  1.17607576E-04  2.06667846E-04  2.27734860E-04  2.04591479E-04  6.66940731E-05  6.89422739E-05
    6.07825809E-05  2.41067894E-05  2.15148622E-05  4.42480694E-05  6.47269555E-05  4.56261089E-05  2.83589549E-05  1.31869114E-04  4.98665743E-04       0.00209212       0.00121035       0.00101382       0.00187858       0.00303223  7.13858819E-04  5.11224793E-04  8.84792380E-04       0.00122187  7.08746657E-04  2.02646384E-04
    1.14390881E-04  3.46099637E-04       0.00188062       0.00358598       0.00474591       0.00268876  9.17199269E-04  1.38333898E-04  4.71785934E-05  2.75618088E-05  1.65672200E-05  3.22860956E-05  5.66333384E-05  2.81690535E-04       0.00111454  6.24164985E-04  8.53197118E-05  4.30401279E-05  5.48351056E-05  5.14120000E-05
    1.05405001E-04  1.33854823E-04  4.10403225E-04       0.00269523       0.00186750  9.60618607E-04  6.45342620E-04  2.15266889E-04  8.85663703E-05  7.08441912E-05  1.58229815E-04  1.08057304E-04  1.59688049E-04  1.20981657E-04  8.32877548E-05  7.26894852E-05  6.31623702E-05  1.00940408E-04  1.49532461E-04  7.63226627E-05
    6.39283816E-05  1.37688239E-04  5.86811426E-05  3.95443318E-05  5.93013092E-05  9.22582510E-05  1.25015313E-04  8.83664594E-05  1.55369848E-04  4.06594051E-04  7.86694874E-04  6.65088718E-04  3.34808732E-04  2.55196613E-04  7.92895395E-05  3.83137634E-05  2.06151378E-04  4.95408215E-04  5.19564438E-04  6.34800972E-04
    1.51945484E-04  3.61990277E-04  5.45282980E-04  4.58878681E-04  1.25448702E-04  7.20089556E-05  7.07054220E-05  3.85122133E-04       0.00124693  3.62706869E-04  1.40514712E-04  1.50109419E-04  9.30765927E-05  7.40687723E-05  7.19774711E-05  1.34981946E-04  1.40319831E-04  1.82699617E-04  5.66748742E-05  4.02832501E-05
    5.53938722E-05  3.70160964E-05  1.91051278E-05  2.23990011E-05  4.53937876E-05  6.27810003E-05  6.45678419E-05  1.17118641E-04  3.85117497E-04  9.90957467E-04       0.00150100       0.00124286       0.00259511       0.00345671       0.00112205  5.80472250E-04  6.21012496E-04  9.23839718E-04  8.67328061E-04  2.65156042E-04
    1.87457214E-04  2.71900812E-04       0.00187611       0.00360300       0.00603883       0.00355410       0.00159824  2.92602899E-04  7.49748766E-05  4.74076706E-05  2.45370372E-05  3.36821061E-05  5.83043859E-05  2.10148228E-04  9.66747004E-04  8.14362673E-04  2.00031192E-04  3.43308839E-05  5.96108036E-05  5.03355930E-05
    6.26709278E-05  1.62828884E-04  2.67317692E-04       0.00171549       0.00256985       0.00108852       0.00105490  2.77897930E-04  1.44367912E-04  9.25338653E-05  1.78828695E-04  3.11409552E-04  2.01553254E-04  1.42097017E-04  6.22801235E-05  4.05655224E-05  4.04980219E-05  5.54943489E-05  1.22751352E-04  1.10161801E-04
    7.75935505E-05  9.18063744E-05  1.21443564E-04  6.24382217E-05  9.78590697E-05  1.08964016E-04  9.92567532E-05  6.10514047E-05  7.25116677E-05  2.82005412E-04  6.64710974E-04  6.95568612E-04  6.05297230E-04  2.75053436E-04  1.04467724E-04  2.76025876E-05  1.00688497E-04  5.25015517E-04  4.91075000E-04  6.55115534E-04
    3.78212599E-05  1.18325000E-04  2.07453594E-04  3.56777735E-04  1.75667623E-04  9.27357700E-05  7.35154749E-05  1.86066275E-04  9.09177999E-04  4.19034898E-04  1.88139211E-04  1.19920229E-04  7.63714816E-05  6.60440225E-05  5.53640354E-05  9.00759285E-05  8.45796672E-05  1.17295978E-04  5.02849932E-05  3.08298073E-05
    7.23122029E-05  4.34703624E-05  2.14823438E-05  1.98541495E-05  2.74158992E-05  6.27259565E-05  1.07701234E-04  1.63589237E-04  3.56057137E-04  5.04501240E-04       0.00151825  8.84252524E-04       0.00314609       0.00293429       0.00187702  6.40695019E-04  4.76662917E-04  5.62309170E-04  7.70384895E-04  4.49815156E-04
    4.21199738E-04  2.96053153E-04       0.00110870       0.00511613       0.00731389       0.00477982       0.00296196  6.54878794E-04  1.14619576E-04  6.67577001E-05  3.87028846E-05  3.21483409E-05  6.30880286E-05  1.28369790E-04  7.71884956E-04       0.00126240  4.83108370E-04  5.79705961E-05  5.33997569E-05  6.35237019E-05
    4.97058397E-05  1.16238191E-04  2.06806274E-04  9.37811114E-04       0.00255079       0.00155144       0.00109727  3.03463433E-04  1.15593971E-04  8.77458296E-05  1.58311506E-04  4.90975864E-04  3.73691786E-04  1.87991688E-04  6.22562643E-05  3.22186112E-05  3.08089632E-05  2.95139784E-05  6.99492952E-05  1.21672369E-04
    1.02964440E-04  1.02318116E-04  1.33073132E-04  8.77523127E-05  1.92991117E-04  2.33279507E-04  1.56730807E-04  6.75291355E-05  4.02908426E-05  2.07389194E-04  5.24090130E-04  6.12161299E-04       0.00111685  3.96333918E-04  1.67222157E-04  3.42496669E-05  4.09945601E-05  3.94820493E-04  5.27037259E-04  6.47629446E-04
    1.11372058E-05  2.93508591E-05  6.67593722E-05  1.88899579E-04  1.78495931E-04  1.46394177E-04  1.38922551E-04  1.75805064E-04  4.12108859E-04  4.20377925E-04  2.56268889E-04  1.34722650E-04  1.06090419E-04  4.72963523E-05  5.58749954E-05  6.31877710E-05  6.10501877E-05  5.81070157E-05  4.17430183E-05  2.40158499E-05
    8.19645766E-05  6.94730509E-05  2.99108901E-05  2.16588210E-05  2.02808685E-05  4.77331492E-05  8.88772230E-05  2.11715976E-04  4.36001932E-04  6.61992074E-04  8.46353034E-04       0.00114451       0.00210306       0.00281022       0.00188260  7.64275816E-04  5.89465777E-04  2.72996433E-04  6.04930874E-04  7.44441957E-04
    8.06717790E-04  7.50622557E-04  7.60349822E-04       0.00514429       0.00740659       0.00566926       0.00349685       0.00130494  2.13249430E-04  8.90603114E-05  4.99443264E-05  3.84705568E-05  5.14618313E-05  1.05613488E-04  3.69572963E-04       0.00151369  8.46237599E-04  1.43811438E-04  6.18230963E-05  6.38808068E-05
    3.66084151E-05  5.61962032E-05  1.57495151E-04  3.46358628E-04       0.00207028       0.00177943       0.00106562  5.93311533E-04  1.12177145E-04  9.29371084E-05  1.40993495E-04  3.05551945E-04  5.96910091E-04  2.44105353E-04  7.63268203E-05  3.42869442E-05  2.94955487E-05  2.16017009E-05  3.27681860E-05  7.51858575E-05
    1.02486233E-04  1.19059736E-04  1.07579412E-04  1.04221554E-04  2.74134765E-04  5.67611154E-04  4.20273728E-04  1.06185215E-04  3.29607100E-05  9.79600768E-05  4.04829646E-04  6.11630914E-04       0.00144772  9.32407412E-04  1.76943890E-04  5.87875211E-05  2.81996609E-05  1.78197121E-04  3.72265606E-04  6.57504623E-04
    4.32280686E-06  7.88703886E-06  2.99340072E-05  6.31280518E-05  1.44640264E-04  1.78551379E-04  2.53486674E-04  3.22705833E-04  2.99496284E-04  3.91567956E-04  2.30774470E-04  1.83717701E-04  1.22421446E-04  4.92497089E-05  5.86117501E-05  5.19060205E-05  3.75637693E-05  3.05859535E-05  4.49217273E-05  2.03461304E-05
    6.97853805E-05  1.11384987E-04  5.03434479E-05  2.12875522E-05  1.76287374E-05  3.32414621E-05  6.54388265E-05  1.55994587E-04  6.16983994E-04       0.00123513       0.00100699       0.00172479       0.00164459       0.00182912       0.00147507       0.00110207  7.33481141E-04  2.35991386E-04  4.76695485E-04  7.47850564E-04
         0.00159939       0.00219351       0.00107050       0.00234105       0.00544842       0.00781575       0.00311377       0.00220294  3.51859226E-04  1.34903766E-04  6.17737327E-05  5.14232175E-05  4.42887990E-05  6.50535733E-05  1.85910108E-04       0.00124357  8.72707492E-04  2.65024475E-04  9.02557489E-05  8.06032670E-05
    3.93043885E-05  2.29755527E-05  8.11253012E-05  1.64630791E-04  9.33560822E-04       0.00179425  9.26685734E-04  9.09379294E-04  2.00870511E-04  1.11421013E-04  1.50200844E-04  2.71867705E-04  5.50051986E-04  3.60491118E-04  1.09003025E-04  3.67892059E-05  2.95853445E-05  2.34915199E-05  1.61465383E-05  3.65433043E-05
    8.75310950E-05  9.24763626E-05  1.06697633E-04  1.28315737E-04  2.20854171E-04  7.58503145E-04  8.61437536E-04  3.20725873E-04  3.65045989E-05  5.07208605E-05  3.05039143E-04  4.52768186E-04       0.00205731       0.00279129  2.61270228E-04  7.02426014E-05  2.53985199E-05  5.19406977E-05  1.87789579E-04  3.82672248E-04
    3.07706190E-06  3.44988925E-06  9.34926166E-06  2.77769598E-05  7.46648363E-05  1.79076510E-04  3.64590397E-04  6.28127818E-04  4.01960222E-04  3.11671461E-04  2.17151487E-04  1.42867890E-04  1.34822565E-04  5.24094138E-05  3.66028359E-05  5.48287364E-05  4.59588619E-05  3.40101023E-05  4.31678522E-05  2.61799394E-05
    2.61799394E-05  2.61799394E-05  2.61799394E-05  5.58332209E-05  1.54744691E-04  6.60678973E-05  2.40648608E-05  1.38400751E-05  2.59291173E-05  5.42079192E-05  1.32375779E-04  4.68042548E-04       0.00144044       0.00202483       0.00190358       0.00265354       0.00124316       0.00104789       0.00113897  7.43174231E-04
    3.50203174E-04  2.94779508E-04  8.11089249E-04       0.00176553       0.00377545       0.00271792       0.00153767       0.00304912       0.00725543       0.00308016       0.00236239  6.95084833E-04  2.17500731E-04  1.14087224E-04  5.98393822E-05  5.36733218E-05  4.63184512E-05  1.07949415E-04  6.12739715E-04       0.00108773
    3.24328209E-04  1.64203090E-04  9.32794261E-05  9.32794261E-05  9.32794261E-05  9.32794261E-05  4.47356580E-05  1.53445789E-05  3.57970010E-05  8.50853313E-05  3.33738612E-04       0.00162278  7.71971270E-04  8.35132946E-04  4.52962558E-04  1.58783644E-04  1.79294182E-04  2.72584404E-04  5.05991348E-04  3.71376198E-04
    1.56492410E-04  4.51738473E-05  3.53013461E-05  2.30636258E-05  1.08876330E-05  2.11029954E-05  7.00005475E-05  6.59785251E-05  1.13947702E-04  1.35099272E-04  1.70497545E-04  9.39572966E-04       0.00116444  9.40990102E-04  8.99921907E-05  4.54274912E-05  2.23854535E-04  3.65409274E-04       0.00135618       0.00681921
    8.88847026E-04  6.31874462E-05  2.05054646E-05  2.35004273E-05  7.98903745E-05  1.81876947E-04  4.46786266E-06  3.15510050E-06  4.06272647E-06  1.32895983E-05  3.44511567E-05  1.25413958E-04  4.02355882E-04  6.01551899E-04  7.72484320E-04  3.03726189E-04  2.21938287E-04  1.01740297E-04  9.69698769E-05  7.19491163E-05
    1.95221792E-05  3.55035159E-05  5.78062974E-05  6.35224326E-05  7.02441428E-05  7.02441428E-05  7.02441428E-05  7.02441428E-05  6.45652626E-05  6.45652626E-05  6.45652626E-05  6.45652626E-05  6.45652626E-05  6.45652626E-05  6.45652626E-05  6.45652626E-05  6.45652626E-05  6.45652626E-05  6.45652626E-05  6.45652626E-05
    6.45652626E-05  6.45652626E-05  6.45652626E-05  6.45652626E-05  6.45652626E-05  6.45652626E-05  6.45652626E-05  6.45652626E-05  6.45652626E-05  6.45652626E-05  6.45652626E-05  6.45652626E-05  6.45652626E-05  6.45652626E-05  6.45652626E-05  6.45652626E-05  6.45652626E-05  6.45652626E-05  6.45652626E-05  6.45652626E-05
    6.45652626E-05  6.45652626E-05  6.45652626E-05  6.45652626E-05  6.45652626E-05  6.45652626E-05  6.45652626E-05  6.45652626E-05  5.93359250E-05  5.93359250E-05  5.93359250E-05  5.93359250E-05  1.67508332E-04  1.11298785E-04  3.14082207E-05  1.19100573E-05  1.44165437E-05  5.09983858E-05  1.01764377E-04  3.03350536E-04
    9.71166553E-04       0.00374632       0.00319721       0.00291325       0.00170839  5.18030660E-04  6.41797977E-04  8.54243360E-04  5.21136122E-04  2.70396812E-04  6.53716190E-04       0.00106743       0.00503229       0.00575336       0.00296638       0.00236347       0.00393253       0.00402257       0.00229108  9.83129733E-04
    3.75566665E-04  2.19562600E-04  7.53219821E-05  5.43635259E-05  4.06916676E-05  5.94377875E-05  2.77651504E-04  9.17557400E-04  3.72551181E-04  2.00801039E-04  2.00801039E-04  2.00801039E-04  2.00801039E-04  1.16894977E-04  1.16894977E-04  1.16894977E-04  1.16894977E-04  1.16894977E-04  1.16894977E-04  1.16894977E-04
    1.16894977E-04  1.16894977E-04  1.16894977E-04  1.16894977E-04  1.16894977E-04  1.16894977E-04  1.16894977E-04  1.16894977E-04  1.16894977E-04  1.16894977E-04  1.16894977E-04  1.16894977E-04  1.16894977E-04  1.16894977E-04  1.16894977E-04  1.16894977E-04  1.16894977E-04  1.16894977E-04  1.16894977E-04  1.16894977E-04
    1.16894977E-04  1.16894977E-04  1.16894977E-04  1.16894977E-04  1.16894977E-04  1.16894977E-04  1.16894977E-04  1.16894977E-04  1.16894977E-04  1.16894977E-04  1.16894977E-04  1.16894977E-04  1.16894977E-04  5.02505635E-05  5.02505635E-05  5.02505635E-05  5.02505635E-05  2.18076367E-05  1.91249817E-05  5.20196040E-05
    1.88463183E-04  8.72008565E-04  8.13596883E-04  5.65439117E-04  8.80623933E-04  2.50382154E-04  2.26207102E-04  2.04616339E-04  4.05184445E-04  4.45765467E-04  1.87093035E-04  5.65590609E-05  2.94912171E-05  1.93139426E-05  1.31279554E-05  1.48891280E-05  4.80700017E-05  6.93396677E-05  7.10773780E-05  1.11878200E-04
    1.34844786E-04  7.93540477E-04       0.00129968       0.00179400  3.72528655E-04  5.14695616E-05  1.98758429E-04  4.05088304E-04       0.00115969       0.00930310       0.00290297  1.16374940E-04  1.96661568E-05  1.44421803E-05  2.63032508E-05  7.79981993E-05  8.41400024E-06  5.34696183E-06  2.98603941E-06  5.70685004E-06
    1.40018511E-05  6.15311468E-05  3.85226201E-04  5.64632451E-04       0.00112440  5.48817810E-04  2.54289429E-04  1.17635037E-04  7.42131795E-05  5.81374404E-05  1.79293463E-05  1.48431279E-05  4.33802842E-05  9.02571346E-05  1.74974053E-04  1.81805263E-04  1.81805263E-04  1.81805263E-04  1.81805263E-04  8.37234374E-05
    1.49608349E-04  2.02734567E-04  5.11210849E-05  9.85835430E-06  1.15742457E-05  3.97533943E-05  8.17332815E-05  2.33836042E-04  7.14900327E-04       0.00341056       0.00576797       0.00281850       0.00215475  4.32232496E-04  3.82507452E-04  6.62807615E-04  6.03053288E-04  4.42642323E-04  5.19725569E-04  6.32996378E-04
         0.00458552       0.00859863       0.00564697       0.00322754       0.00261937       0.00451965       0.00274033       0.00156976  5.49353572E-04  3.49660589E-04  1.22959013E-04  5.05995652E-05  4.34740686E-05  3.21172236E-05  1.28125387E-04  4.98808025E-04  4.03118556E-04  2.10072279E-04  1.65803786E-04  1.65803786E-04
    1.65803786E-04  1.65803786E-04  5.32700967E-05  2.89593365E-05  1.70985488E-05  3.89668141E-05  1.30390697E-04  6.13682733E-04  7.78917969E-04  4.63510481E-04  8.64675552E-04  3.79849857E-04  3.62398268E-04  2.09961509E-04  2.96503767E-04  4.84157240E-04  1.89643507E-04  9.76489327E-05  3.02684471E-05  1.53665341E-05
    1.82545900E-05  1.22533034E-05  3.28046136E-05  8.13213024E-05  4.41714016E-05  7.16098430E-05  9.26132464E-05  3.80800108E-04       0.00130820       0.00189368  8.47067524E-04  1.01741838E-04  1.37384053E-04  5.51552726E-04       0.00130579       0.00935063       0.00516120  3.21190846E-04  1.93291892E-05  1.11883857E-05
    1.55192161E-05  3.14878965E-05  1.25223920E-05  7.59177623E-06  4.38475094E-06  3.32055636E-06  6.74542107E-06  2.87965582E-05  1.90551389E-04  5.66268238E-04       0.00109766  8.72812382E-04  3.74989716E-04  1.69561572E-04  9.00860219E-05  4.58294300E-05  2.32497346E-05  9.01204647E-06  2.04062139E-05  6.35231986E-05
    2.64508609E-04  4.27264689E-04  1.65646789E-04  2.06576273E-04  1.69001117E-04  9.05148442E-05  1.68070451E-05  1.08101615E-05  2.50992638E-05  6.86015818E-05  1.50824025E-04  5.22976347E-04       0.00303731       0.01091453       0.00406128       0.00212355  7.84372015E-04  2.51822647E-04  3.47259820E-04  5.47909263E-04
    7.01031151E-04  5.01192436E-04  5.58693497E-04       0.00261147       0.00876243       0.00836042       0.00523070       0.00407186       0.00431998       0.00444567       0.00242178  8.42456961E-04  4.97816424E-04  1.80373463E-04  4.59479882E-05  4.47679912E-05  2.78493559E-05  4.74390418E-05  2.62812303E-04  2.77167500E-04
    2.69807907E-04  1.72918190E-04  6.69782200E-05  4.19098007E-05  2.33798018E-05  3.34783003E-05  1.28970339E-04  3.73365581E-04  6.21551702E-04  4.67585097E-04  6.80459136E-04  7.60801864E-04  4.41547492E-04  3.68191613E-04  3.09249026E-04  4.42935382E-04  2.49887336E-04  1.23484343E-04  3.61164118E-05  1.30523865E-05
    1.77990070E-05  1.98544640E-05  1.97953280E-05  7.14399873E-05  6.73382419E-05  4.47877570E-05  5.96463166E-05  1.65335175E-04  7.44024015E-04       0.00148897       0.00117325  1.88173535E-04  1.11922645E-04  5.51391531E-04  9.61912246E-04       0.01350376       0.00968292  7.41112285E-04  3.71526267E-05  1.07449930E-05
    1.83064778E-05  2.01931640E-05  1.55451659E-05  9.66382788E-06  7.16114247E-06  3.25007345E-06  3.69834891E-06  1.80017304E-05  7.43259045E-05  3.73850668E-04  8.68877357E-04       0.00126311  4.89524209E-04  2.03184485E-04  8.93910761E-05  4.95608347E-05  2.97520095E-05  1.04974837E-05  1.04586737E-05  3.56619471E-05
    2.03447854E-04  5.69770911E-04  3.28067906E-04  1.66966664E-04  1.86168739E-04  1.32897533E-04  3.85897316E-05  1.18673775E-05  1.49153486E-05  5.38904588E-05  1.03262582E-04  3.53808853E-04       0.00251123       0.01188385       0.00707923       0.00280112       0.00138163  2.87704306E-04  2.70958908E-04  5.15933840E-04
    7.94412529E-04  5.17541082E-04  4.85993754E-04       0.00104731       0.00860719       0.00809059       0.00789214       0.00654301       0.00543453       0.00431093       0.00371245       0.00125073  8.11543342E-04  2.67041277E-04  4.84708719E-05  3.35409838E-05  3.04335281E-05  2.14960992E-05  9.92912161E-05  2.72281398E-04
    1.82833417E-04  2.02223169E-04  1.17530325E-04  6.10804334E-05  3.01118461E-05  3.42274897E-05  1.07177915E-04  2.94977878E-04  3.55853379E-04  6.20448253E-04  5.80959495E-04  8.81833737E-04  4.90143170E-04  7.39830714E-04  3.77311858E-04  4.12137847E-04  2.76833948E-04  1.23879395E-04  6.70692343E-05  1.81724360E-05
    1.00266256E-05  3.93223585E-05  2.23158912E-05  4.91600365E-05  7.66717571E-05  4.26102750E-05  4.97333619E-05  7.71518190E-05  2.86584477E-04  9.88471241E-04       0.00126097  3.39691494E-04  1.29821083E-04  4.04076893E-04  7.24327874E-04       0.00658899       0.01884552       0.00177739  1.07025392E-04  1.47098447E-05
    1.88199547E-05  2.27073375E-05  3.13106930E-05  9.60730706E-06  6.93093939E-06  4.54970457E-06  2.45163961E-06  9.32543050E-06  5.89213629E-05  2.20853646E-04  6.80347479E-04       0.00128740  4.75920750E-04  2.03746450E-04  1.13950499E-04  5.97673347E-05  3.22372206E-05  1.82594769E-05  6.41133590E-06  1.74755427E-05
    1.01572776E-04  3.76080308E-04  4.59894923E-04  1.79827006E-04  2.73546637E-04  1.27266974E-04  7.37256902E-05  1.91095128E-05  1.19555440E-05  1.88695755E-05  7.01267440E-05  2.55669260E-04       0.00112647       0.00803502       0.01101379       0.00381476       0.00241491  5.80354313E-04  2.32777183E-04  4.26318472E-04
    7.13962090E-04  6.12453686E-04  4.28286924E-04  5.64639612E-04       0.00505729       0.01005609       0.00948023       0.00786788       0.00545813       0.00332356       0.00489943       0.00165912  9.64877938E-04  5.20651253E-04  5.84989407E-05  2.10579225E-05  3.07435720E-05  1.89509485E-05  4.09390243E-05  2.02651705E-04
    1.52974186E-04  1.99628306E-04  1.79812469E-04  1.22836128E-04  5.12283651E-05  3.70458068E-05  5.94030476E-05  2.18517103E-04  2.68235885E-04  6.76933153E-04  8.16343476E-04       0.00117357  5.43183445E-04  9.93373522E-04  3.85486590E-04  4.26433288E-04  2.96547339E-04  1.34738881E-04  1.07072058E-04  3.34150687E-05
    1.00064444E-05  3.45436252E-05  4.02304818E-05  3.79320169E-05  5.60606721E-05  4.63822217E-05  4.36488539E-05  3.89698835E-05  1.04782218E-04  4.81145700E-04       0.00106350  5.03515198E-04  1.53873121E-04  3.12841654E-04  6.03302166E-04       0.00163866       0.02073728       0.00328651  3.25045697E-04  3.14872438E-05
    1.73927943E-05  3.31141049E-05  7.17993861E-05  1.01718184E-05  7.22328513E-06  3.89593420E-06  1.80151812E-06  4.00138236E-06  3.46135624E-05  1.63261926E-04  4.82266048E-04       0.00118946  6.87918385E-04  1.37780174E-04  1.56972466E-04  7.52381084E-05  4.18531903E-05  2.66462755E-05  6.00176929E-06  1.11502923E-05
    4.98014535E-05  2.25962502E-04  3.03693940E-04  2.65936851E-04  2.07328824E-04  1.65650281E-04  9.92143922E-05  3.56724277E-05  1.45852317E-05  1.08830679E-05  2.81277330E-05  1.00833263E-04  4.98048529E-04       0.00485697       0.00892514       0.00563896       0.00405370       0.00146678  2.27340541E-04  2.41524743E-04
    3.76402267E-04  7.32617098E-04  4.84343688E-04  4.65697157E-04       0.00258812       0.00909078       0.00952104       0.01041020       0.00457683       0.00241309       0.00371393       0.00207932       0.00107990  5.41802420E-04  9.93922879E-05  1.85844673E-05  3.02165966E-05  2.05642509E-05  2.33084447E-05  1.12138960E-04
    1.37845128E-04  1.68433930E-04  2.52940315E-04  2.07254207E-04  8.44937230E-05  3.86228481E-05  3.91259451E-05  1.44674067E-04  2.15531978E-04  5.71997023E-04       0.00105300       0.00145730  8.69034469E-04  7.77012666E-04  4.08174773E-04  2.99383503E-04  2.54536481E-04  1.83208692E-04  1.36270470E-04  6.73519714E-05
    1.80618075E-05  2.12259757E-05  7.70479478E-05  3.65053109E-05  5.78950889E-05  4.92912019E-05  3.77468746E-05  4.06444453E-05  5.34104360E-05  1.90402658E-04  7.01840155E-04  5.21447137E-04  1.73058618E-04  1.96954717E-04  4.31719818E-04  6.30570679E-04       0.00552843       0.00521181  7.76016902E-04  9.99869643E-05
    2.14071807E-05  4.82449208E-05  1.21000504E-04  1.80540368E-05  7.07786544E-06  2.76854142E-06  1.35561929E-06  1.95130864E-06  1.11457779E-05  1.10699996E-04  2.86526874E-04       0.00102013  8.19594649E-04  1.57825249E-04  9.42122943E-05  1.18382633E-04  7.03889344E-05  4.33707091E-05  1.38800613E-05  6.22146295E-06