# File generated by Flopy version 3.6.0 on 04/22/2024 at 08:54:13.
BEGIN options
END options

BEGIN dimensions
  MAXBOUND  5
END dimensions

BEGIN period  1
  1 1138 0.00000000E+00
  1 1223 0.00000000E+00
  1 3240 0.00000000E+00
  1 3345 -2.50000000E-05
  1 4389 -2.50000000E-04
END period  1

