# File generated by Flopy version 3.6.0 on 05/28/2024 at 09:32:28.
BEGIN options
  PRINT_OPTION  summary
  COMPLEXITY  complex
END options

BEGIN linear
  LINEAR_ACCELERATION  bicgstab
END linear

