# File generated by Flopy version 3.6.0 on 04/08/2024 at 13:19:09.
BEGIN options
END options

BEGIN dimensions
  MAXBOUND  5000
END dimensions

BEGIN period  1
  1 1 1.59159951E-08
  1 2 1.60122733E-08
  1 3 1.57416754E-08
  1 4 1.50942982E-08
  1 5 1.43765037E-08
  1 6 1.39585873E-08
  1 7 1.38273199E-08
  1 8 1.36841129E-08
  1 9 1.37156911E-08
  1 10 1.42735132E-08
  1 11 1.48704241E-08
  1 12 1.53043326E-08
  1 13 1.61052197E-08
  1 14 1.70506132E-08
  1 15 1.74647272E-08
  1 16 1.82010230E-08
  1 17 1.88750285E-08
  1 18 1.89196701E-08
  1 19 1.87850579E-08
  1 20 1.85846817E-08
  1 21 1.83698466E-08
  1 22 1.80529997E-08
  1 23 1.75197991E-08
  1 24 1.63259849E-08
  1 25 1.59833795E-08
  1 26 1.57559908E-08
  1 27 1.54317749E-08
  1 28 1.55475144E-08
  1 29 1.57150871E-08
  1 30 1.56541259E-08
  1 31 1.52733059E-08
  1 32 1.52132163E-08
  1 33 1.50082021E-08
  1 34 1.49178392E-08
  1 35 1.51673284E-08
  1 36 1.51072787E-08
  1 37 1.47295513E-08
  1 38 1.46097447E-08
  1 39 1.43632128E-08
  1 40 1.35289952E-08
  1 41 1.34750054E-08
  1 42 1.39877466E-08
  1 43 1.46816329E-08
  1 44 1.49053024E-08
  1 45 1.49995829E-08
  1 46 1.50216239E-08
  1 47 1.58411676E-08
  1 48 1.62985686E-08
  1 49 1.64915583E-08
  1 50 1.65200993E-08
  1 51 1.66085141E-08
  1 52 1.66266183E-08
  1 53 1.68789978E-08
  1 54 1.70388876E-08
  1 55 1.72979346E-08
  1 56 1.77248394E-08
  1 57 1.78808019E-08
  1 58 1.78957359E-08
  1 59 1.80316970E-08
  1 60 1.82334388E-08
  1 61 1.89572809E-08
  1 62 1.89517428E-08
  1 63 1.82917699E-08
  1 64 1.73433917E-08
  1 65 1.59532622E-08
  1 66 1.46692304E-08
  1 67 1.38985658E-08
  1 68 1.32247077E-08
  1 69 1.29377604E-08
  1 70 1.24553079E-08
  1 71 1.22499478E-08
  1 72 1.20031428E-08
  1 73 1.18380553E-08
  1 74 1.21147861E-08
  1 75 1.25258876E-08
  1 76 1.32731867E-08
  1 77 1.39818422E-08
  1 78 1.47201786E-08
  1 79 1.52009896E-08
  1 80 1.50826740E-08
  1 81 1.52940218E-08
  1 82 1.52996270E-08
  1 83 1.49470148E-08
  1 84 1.44870058E-08
  1 85 1.41254256E-08
  1 86 1.46409955E-08
  1 87 1.52402481E-08
  1 88 1.55046404E-08
  1 89 1.58551504E-08
  1 90 1.64938419E-08
  1 91 1.74224316E-08
  1 92 1.80511646E-08
  1 93 1.78990477E-08
  1 94 1.70148299E-08
  1 95 1.63783586E-08
  1 96 1.56635809E-08
  1 97 1.47741304E-08
  1 98 1.41395376E-08
  1 99 1.35596738E-08
  1 100 1.33424966E-08
  1 101 1.47688374E-08
  1 102 1.36311574E-08
  1 103 1.30116971E-08
  1 104 1.28895261E-08
  1 105 1.28044842E-08
  1 106 1.26825855E-08
  1 107 1.29990225E-08
  1 108 1.37212653E-08
  1 109 1.43828230E-08
  1 110 1.49591464E-08
  1 111 1.59714631E-08
  1 112 1.66787029E-08
  1 113 1.75129222E-08
  1 114 1.80413156E-08
  1 115 1.83677658E-08
  1 116 1.80543762E-08
  1 117 1.82185744E-08
  1 118 1.78863656E-08
  1 119 1.74838212E-08
  1 120 1.69160747E-08
  1 121 1.60759910E-08
  1 122 1.55486302E-08
  1 123 1.53859138E-08
  1 124 1.50427392E-08
  1 125 1.53433163E-08
  1 126 1.55161845E-08
  1 127 1.57577031E-08
  1 128 1.57544040E-08
  1 129 1.56071002E-08
  1 130 1.52256162E-08
  1 131 1.50105393E-08
  1 132 1.50499106E-08
  1 133 1.51219935E-08
  1 134 1.48957891E-08
  1 135 1.44417540E-08
  1 136 1.40581361E-08
  1 137 1.38102722E-08
  1 138 1.38742909E-08
  1 139 1.44775085E-08
  1 140 1.48640828E-08
  1 141 1.51428386E-08
  1 142 1.53467391E-08
  1 143 1.54140980E-08
  1 144 1.55549041E-08
  1 145 1.54759089E-08
  1 146 1.56550883E-08
  1 147 1.62269986E-08
  1 148 1.62501783E-08
  1 149 1.65538650E-08
  1 150 1.69208197E-08
  1 151 1.75394053E-08
  1 152 1.76841961E-08
  1 153 1.78836934E-08
  1 154 1.79132097E-08
  1 155 1.80696307E-08
  1 156 1.80881489E-08
  1 157 1.81592197E-08
  1 158 1.83257139E-08
  1 159 1.86122262E-08
  1 160 1.84964567E-08
  1 161 1.76211617E-08
  1 162 1.61354309E-08
  1 163 1.46965817E-08
  1 164 1.37785386E-08
  1 165 1.31599173E-08
  1 166 1.29006939E-08
  1 167 1.27574381E-08
  1 168 1.24117566E-08
  1 169 1.21551856E-08
  1 170 1.18037271E-08
  1 171 1.19247281E-08
  1 172 1.24606141E-08
  1 173 1.30127620E-08
  1 174 1.38244226E-08
  1 175 1.45514735E-08
  1 176 1.50293449E-08
  1 177 1.52067125E-08
  1 178 1.51814913E-08
  1 179 1.51013527E-08
  1 180 1.46621998E-08
  1 181 1.44902827E-08
  1 182 1.44687813E-08
  1 183 1.49333908E-08
  1 184 1.55470440E-08
  1 185 1.56603427E-08
  1 186 1.55551254E-08
  1 187 1.59490370E-08
  1 188 1.66282038E-08
  1 189 1.72214135E-08
  1 190 1.71529228E-08
  1 191 1.62223064E-08
  1 192 1.55459199E-08
  1 193 1.48437536E-08
  1 194 1.38346050E-08
  1 195 1.32716796E-08
  1 196 1.28198907E-08
  1 197 1.27631218E-08
  1 198 1.32170891E-08
  1 199 1.40269957E-08
  1 200 1.43412397E-08
  1 201 1.23165561E-08
  1 202 1.19556529E-08
  1 203 1.18640124E-08
  1 204 1.20343204E-08
  1 205 1.26814240E-08
  1 206 1.34215268E-08
  1 207 1.43863128E-08
  1 208 1.52778504E-08
  1 209 1.60620272E-08
  1 210 1.67342529E-08
  1 211 1.71203963E-08
  1 212 1.74790635E-08
  1 213 1.77389013E-08
  1 214 1.78971892E-08
  1 215 1.74384750E-08
  1 216 1.66616370E-08
  1 217 1.64229178E-08
  1 218 1.58778837E-08
  1 219 1.53044995E-08
  1 220 1.47014026E-08
  1 221 1.46676539E-08
  1 222 1.47847634E-08
  1 223 1.49579301E-08
  1 224 1.51692967E-08
  1 225 1.54867717E-08
  1 226 1.52484858E-08
  1 227 1.48864081E-08
  1 228 1.45756425E-08
  1 229 1.47394849E-08
  1 230 1.50543688E-08
  1 231 1.49895648E-08
  1 232 1.47317040E-08
  1 233 1.44567712E-08
  1 234 1.45385294E-08
  1 235 1.45162805E-08
  1 236 1.47772486E-08
  1 237 1.49823474E-08
  1 238 1.52715812E-08
  1 239 1.54357517E-08
  1 240 1.50832573E-08
  1 241 1.49214783E-08
  1 242 1.50673010E-08
  1 243 1.52980366E-08
  1 244 1.54960604E-08
  1 245 1.58364951E-08
  1 246 1.61899712E-08
  1 247 1.68137458E-08
  1 248 1.73952338E-08
  1 249 1.78894422E-08
  1 250 1.79040815E-08
  1 251 1.80105227E-08
  1 252 1.77784559E-08
  1 253 1.77722611E-08
  1 254 1.79024011E-08
  1 255 1.78150799E-08
  1 256 1.74738198E-08
  1 257 1.77048271E-08
  1 258 1.71425777E-08
  1 259 1.61706383E-08
  1 260 1.50898936E-08
  1 261 1.42880283E-08
  1 262 1.36997784E-08
  1 263 1.32535745E-08
  1 264 1.28692108E-08
  1 265 1.23691767E-08
  1 266 1.22760478E-08
  1 267 1.20891175E-08
  1 268 1.22046082E-08
  1 269 1.23983205E-08
  1 270 1.30874857E-08
  1 271 1.38729686E-08
  1 272 1.47699565E-08
  1 273 1.53025692E-08
  1 274 1.57425757E-08
  1 275 1.56078719E-08
  1 276 1.51731987E-08
  1 277 1.48560685E-08
  1 278 1.44934734E-08
  1 279 1.47739116E-08
  1 280 1.51592659E-08
  1 281 1.57705540E-08
  1 282 1.60271045E-08
  1 283 1.58162785E-08
  1 284 1.60768534E-08
  1 285 1.63583094E-08
  1 286 1.66798112E-08
  1 287 1.62821665E-08
  1 288 1.55505174E-08
  1 289 1.50732799E-08
  1 290 1.42056502E-08
  1 291 1.35577951E-08
  1 292 1.30833451E-08
  1 293 1.27275474E-08
  1 294 1.24478511E-08
  1 295 1.26869531E-08
  1 296 1.33252369E-08
  1 297 1.38348684E-08
  1 298 1.41229411E-08
  1 299 1.41758496E-08
  1 300 1.41279178E-08
  1 301 1.16319873E-08
  1 302 1.21786328E-08
  1 303 1.30419660E-08
  1 304 1.41563881E-08
  1 305 1.50565338E-08
  1 306 1.55383588E-08
  1 307 1.59782343E-08
  1 308 1.62438377E-08
  1 309 1.67608764E-08
  1 310 1.69991442E-08
  1 311 1.70927875E-08
  1 312 1.67258487E-08
  1 313 1.60192890E-08
  1 314 1.58916639E-08
  1 315 1.56139301E-08
  1 316 1.48866075E-08
  1 317 1.44536055E-08
  1 318 1.45144150E-08
  1 319 1.46921554E-08
  1 320 1.46631322E-08
  1 321 1.50847391E-08
  1 322 1.49268003E-08
  1 323 1.48020471E-08
  1 324 1.41873133E-08
  1 325 1.39010121E-08
  1 326 1.43308578E-08
  1 327 1.50121519E-08
  1 328 1.52318741E-08
  1 329 1.50718262E-08
  1 330 1.48938268E-08
  1 331 1.49245484E-08
  1 332 1.50521791E-08
  1 333 1.51821605E-08
  1 334 1.52174522E-08
  1 335 1.51716067E-08
  1 336 1.49543819E-08
  1 337 1.47219287E-08
  1 338 1.49346087E-08
  1 339 1.50288965E-08
  1 340 1.50321368E-08
  1 341 1.49858922E-08
  1 342 1.51540171E-08
  1 343 1.57428322E-08
  1 344 1.62258720E-08
  1 345 1.69222843E-08
  1 346 1.74418622E-08
  1 347 1.75629271E-08
  1 348 1.76315829E-08
  1 349 1.76295922E-08
  1 350 1.76033464E-08
  1 351 1.75509508E-08
  1 352 1.72651398E-08
  1 353 1.71109324E-08
  1 354 1.68149639E-08
  1 355 1.65863991E-08
  1 356 1.60958410E-08
  1 357 1.53691115E-08
  1 358 1.47074449E-08
  1 359 1.42174155E-08
  1 360 1.38459553E-08
  1 361 1.30816731E-08
  1 362 1.24700801E-08
  1 363 1.23617087E-08
  1 364 1.22562469E-08
  1 365 1.22434843E-08
  1 366 1.26916450E-08
  1 367 1.36934116E-08
  1 368 1.45764254E-08
  1 369 1.51605526E-08
  1 370 1.58706410E-08
  1 371 1.60269051E-08
  1 372 1.58604717E-08
  1 373 1.55655027E-08
  1 374 1.52291696E-08
  1 375 1.47050815E-08
  1 376 1.48347396E-08
  1 377 1.53329682E-08
  1 378 1.54123263E-08
  1 379 1.58545481E-08
  1 380 1.58811667E-08
  1 381 1.62169092E-08
  1 382 1.62332897E-08
  1 383 1.64329462E-08
  1 384 1.60964671E-08
  1 385 1.54861033E-08
  1 386 1.48291041E-08
  1 387 1.41545215E-08
  1 388 1.38927344E-08
  1 389 1.37254596E-08
  1 390 1.30485623E-08
  1 391 1.26116331E-08
  1 392 1.27966766E-08
  1 393 1.32759327E-08
  1 394 1.34733750E-08
  1 395 1.38302001E-08
  1 396 1.39260014E-08
  1 397 1.38863679E-08
  1 398 1.42704864E-08
  1 399 1.46405895E-08
  1 400 1.46227244E-08
  1 401 1.39190627E-08
  1 402 1.48410942E-08
  1 403 1.53642620E-08
  1 404 1.54421812E-08
  1 405 1.56837119E-08
  1 406 1.61044876E-08
  1 407 1.62480686E-08
  1 408 1.63311997E-08
  1 409 1.59429528E-08
  1 410 1.51337727E-08
  1 411 1.50668979E-08
  1 412 1.50542911E-08
  1 413 1.48708935E-08
  1 414 1.47484524E-08
  1 415 1.48149996E-08
  1 416 1.47599930E-08
  1 417 1.47230252E-08
  1 418 1.47475281E-08
  1 419 1.46660044E-08
  1 420 1.43717046E-08
  1 421 1.39744488E-08
  1 422 1.36687696E-08
  1 423 1.40624272E-08
  1 424 1.43090216E-08
  1 425 1.47300052E-08
  1 426 1.49683719E-08
  1 427 1.52402088E-08
  1 428 1.54224098E-08
  1 429 1.54585605E-08
  1 430 1.54411049E-08
  1 431 1.54578143E-08
  1 432 1.52955815E-08
  1 433 1.51830735E-08
  1 434 1.50969154E-08
  1 435 1.51060751E-08
  1 436 1.49883516E-08
  1 437 1.49497535E-08
  1 438 1.48580204E-08
  1 439 1.46266669E-08
  1 440 1.48939196E-08
  1 441 1.52775186E-08
  1 442 1.60420468E-08
  1 443 1.67115217E-08
  1 444 1.70107370E-08
  1 445 1.70215412E-08
  1 446 1.71694966E-08
  1 447 1.73126092E-08
  1 448 1.70791170E-08
  1 449 1.70625479E-08
  1 450 1.68352450E-08
  1 451 1.64563662E-08
  1 452 1.62777736E-08
  1 453 1.60013478E-08
  1 454 1.55288275E-08
  1 455 1.52596781E-08
  1 456 1.45319540E-08
  1 457 1.38896367E-08
  1 458 1.30300624E-08
  1 459 1.25642246E-08
  1 460 1.25797519E-08
  1 461 1.27410298E-08
  1 462 1.29341697E-08
  1 463 1.34068617E-08
  1 464 1.41689632E-08
  1 465 1.49578308E-08
  1 466 1.54245371E-08
  1 467 1.61681960E-08
  1 468 1.65020157E-08
  1 469 1.60774235E-08
  1 470 1.57241430E-08
  1 471 1.55304626E-08
  1 472 1.53596644E-08
  1 473 1.52636415E-08
  1 474 1.56975135E-08
  1 475 1.56719576E-08
  1 476 1.58026199E-08
  1 477 1.57986145E-08
  1 478 1.60225405E-08
  1 479 1.60449975E-08
  1 480 1.62368351E-08
  1 481 1.62442544E-08
  1 482 1.56863110E-08
  1 483 1.50490188E-08
  1 484 1.46039385E-08
  1 485 1.41912008E-08
  1 486 1.41807080E-08
  1 487 1.38703791E-08
  1 488 1.32745580E-08
  1 489 1.32259428E-08
  1 490 1.33759218E-08
  1 491 1.35858475E-08
  1 492 1.37375503E-08
  1 493 1.39487812E-08
  1 494 1.39861578E-08
  1 495 1.42787321E-08
  1 496 1.46300535E-08
  1 497 1.51377905E-08
  1 498 1.56041650E-08
  1 499 1.59616125E-08
  1 500 1.64609674E-08
  1 501 1.52122983E-08
  1 502 1.56698159E-08
  1 503 1.60871970E-08
  1 504 1.61428799E-08
  1 505 1.63023020E-08
  1 506 1.57495563E-08
  1 507 1.52408745E-08
  1 508 1.47376304E-08
  1 509 1.47279091E-08
  1 510 1.47717249E-08
  1 511 1.51958018E-08
  1 512 1.50877700E-08
  1 513 1.48659638E-08
  1 514 1.46609657E-08
  1 515 1.46506924E-08
  1 516 1.42444647E-08
  1 517 1.38797981E-08
  1 518 1.37452747E-08
  1 519 1.36460556E-08
  1 520 1.36498323E-08
  1 521 1.36406486E-08
  1 522 1.38978012E-08
  1 523 1.45556977E-08
  1 524 1.51692807E-08
  1 525 1.55633714E-08
  1 526 1.57468960E-08
  1 527 1.60028280E-08
  1 528 1.59343924E-08
  1 529 1.57803050E-08
  1 530 1.59033762E-08
  1 531 1.56913414E-08
  1 532 1.53768576E-08
  1 533 1.51986889E-08
  1 534 1.50359056E-08
  1 535 1.49420737E-08
  1 536 1.45708531E-08
  1 537 1.44494924E-08
  1 538 1.44017104E-08
  1 539 1.52975508E-08
  1 540 1.58674027E-08
  1 541 1.60939625E-08
  1 542 1.63684747E-08
  1 543 1.66497369E-08
  1 544 1.66650657E-08
  1 545 1.66704259E-08
  1 546 1.67156077E-08
  1 547 1.65355272E-08
  1 548 1.64544375E-08
  1 549 1.63668231E-08
  1 550 1.61639006E-08
  1 551 1.61099341E-08
  1 552 1.59936164E-08
  1 553 1.53218512E-08
  1 554 1.43795296E-08
  1 555 1.35133112E-08
  1 556 1.30412418E-08
  1 557 1.28562389E-08
  1 558 1.32844250E-08
  1 559 1.39896199E-08
  1 560 1.42315768E-08
  1 561 1.46572126E-08
  1 562 1.48204249E-08
  1 563 1.54312062E-08
  1 564 1.62228614E-08
  1 565 1.65690692E-08
  1 566 1.62441644E-08
  1 567 1.61506145E-08
  1 568 1.64539931E-08
  1 569 1.65210010E-08
  1 570 1.60833956E-08
  1 571 1.58745883E-08
  1 572 1.58116722E-08
  1 573 1.57934943E-08
  1 574 1.59436868E-08
  1 575 1.63474983E-08
  1 576 1.60440746E-08
  1 577 1.62207037E-08
  1 578 1.61581917E-08
  1 579 1.59603879E-08
  1 580 1.53293308E-08
  1 581 1.49131048E-08
  1 582 1.45009315E-08
  1 583 1.43267258E-08
  1 584 1.43764714E-08
  1 585 1.39126085E-08
  1 586 1.34251749E-08
  1 587 1.33095627E-08
  1 588 1.36260218E-08
  1 589 1.41007568E-08
  1 590 1.41399039E-08
  1 591 1.42466789E-08
  1 592 1.44400809E-08
  1 593 1.49312232E-08
  1 594 1.58651850E-08
  1 595 1.62324479E-08
  1 596 1.65245391E-08
  1 597 1.69961662E-08
  1 598 1.71614070E-08
  1 599 1.68181307E-08
  1 600 1.64668348E-08
  1 601 1.66841653E-08
  1 602 1.64067843E-08
  1 603 1.59919228E-08
  1 604 1.54679136E-08
  1 605 1.53601776E-08
  1 606 1.50627957E-08
  1 607 1.50299699E-08
  1 608 1.54697277E-08
  1 609 1.53671256E-08
  1 610 1.47801730E-08
  1 611 1.47639540E-08
  1 612 1.48970669E-08
  1 613 1.46640071E-08
  1 614 1.40887300E-08
  1 615 1.37187952E-08
  1 616 1.34816372E-08
  1 617 1.35663135E-08
  1 618 1.34622706E-08
  1 619 1.38276093E-08
  1 620 1.44402512E-08
  1 621 1.54588876E-08
  1 622 1.57114234E-08
  1 623 1.59194568E-08
  1 624 1.63256005E-08
  1 625 1.62415013E-08
  1 626 1.61473166E-08
  1 627 1.62519656E-08
  1 628 1.62383158E-08
  1 629 1.56967592E-08
  1 630 1.51990816E-08
  1 631 1.48692693E-08
  1 632 1.45392337E-08
  1 633 1.43645705E-08
  1 634 1.43595537E-08
  1 635 1.41764889E-08
  1 636 1.46671504E-08
  1 637 1.51653119E-08
  1 638 1.51939485E-08
  1 639 1.54935337E-08
  1 640 1.55359882E-08
  1 641 1.57996501E-08
  1 642 1.59968135E-08
  1 643 1.63630293E-08
  1 644 1.64814258E-08
  1 645 1.65315145E-08
  1 646 1.65402852E-08
  1 647 1.65690283E-08
  1 648 1.66157604E-08
  1 649 1.65013210E-08
  1 650 1.60001785E-08
  1 651 1.51634234E-08
  1 652 1.40624441E-08
  1 653 1.36554010E-08
  1 654 1.36159131E-08
  1 655 1.41269723E-08
  1 656 1.45553233E-08
  1 657 1.46839492E-08
  1 658 1.48637786E-08
  1 659 1.50112235E-08
  1 660 1.56108990E-08
  1 661 1.61070479E-08
  1 662 1.63868570E-08
  1 663 1.62523489E-08
  1 664 1.64123166E-08
  1 665 1.68153697E-08
  1 666 1.71312493E-08
  1 667 1.66264720E-08
  1 668 1.61504474E-08
  1 669 1.59472068E-08
  1 670 1.59459713E-08
  1 671 1.62392160E-08
  1 672 1.61990544E-08
  1 673 1.56250798E-08
  1 674 1.56618846E-08
  1 675 1.55503660E-08
  1 676 1.54250153E-08
  1 677 1.52859748E-08
  1 678 1.50364261E-08
  1 679 1.47590410E-08
  1 680 1.43501085E-08
  1 681 1.43432650E-08
  1 682 1.40975371E-08
  1 683 1.36515067E-08
  1 684 1.33202337E-08
  1 685 1.37709767E-08
  1 686 1.42931863E-08
  1 687 1.47499142E-08
  1 688 1.47501847E-08
  1 689 1.48666482E-08
  1 690 1.48597584E-08
  1 691 1.54474360E-08
  1 692 1.59309616E-08
  1 693 1.65201622E-08
  1 694 1.71107933E-08
  1 695 1.71998331E-08
  1 696 1.67770691E-08
  1 697 1.63472668E-08
  1 698 1.59718361E-08
  1 699 1.61919055E-08
  1 700 1.60076458E-08
  1 701 1.57627529E-08
  1 702 1.56077528E-08
  1 703 1.53901735E-08
  1 704 1.49823859E-08
  1 705 1.54543033E-08
  1 706 1.53783079E-08
  1 707 1.49857498E-08
  1 708 1.48298591E-08
  1 709 1.50387744E-08
  1 710 1.48123759E-08
  1 711 1.42097111E-08
  1 712 1.36649855E-08
  1 713 1.36848412E-08
  1 714 1.36262055E-08
  1 715 1.34740040E-08
  1 716 1.37468855E-08
  1 717 1.46709990E-08
  1 718 1.58607976E-08
  1 719 1.62338109E-08
  1 720 1.62759360E-08
  1 721 1.65173933E-08
  1 722 1.64953001E-08
  1 723 1.61541725E-08
  1 724 1.62363481E-08
  1 725 1.63891096E-08
  1 726 1.60958180E-08
  1 727 1.52784991E-08
  1 728 1.47293596E-08
  1 729 1.42808716E-08
  1 730 1.40031961E-08
  1 731 1.41167390E-08
  1 732 1.38911423E-08
  1 733 1.37278891E-08
  1 734 1.41194728E-08
  1 735 1.45370761E-08
  1 736 1.47277716E-08
  1 737 1.46441678E-08
  1 738 1.47799038E-08
  1 739 1.52252247E-08
  1 740 1.58598978E-08
  1 741 1.63378789E-08
  1 742 1.65672285E-08
  1 743 1.71782809E-08
  1 744 1.71765664E-08
  1 745 1.71732703E-08
  1 746 1.72295317E-08
  1 747 1.65919604E-08
  1 748 1.56557980E-08
  1 749 1.47291870E-08
  1 750 1.44740877E-08
  1 751 1.47991324E-08
  1 752 1.50275287E-08
  1 753 1.51945739E-08
  1 754 1.49404418E-08
  1 755 1.48488483E-08
  1 756 1.48632539E-08
  1 757 1.52686446E-08
  1 758 1.57406594E-08
  1 759 1.62466703E-08
  1 760 1.63747943E-08
  1 761 1.65765479E-08
  1 762 1.69450621E-08
  1 763 1.70185886E-08
  1 764 1.64605380E-08
  1 765 1.59936570E-08
  1 766 1.57358123E-08
  1 767 1.60204841E-08
  1 768 1.61563904E-08
  1 769 1.56949499E-08
  1 770 1.50639642E-08
  1 771 1.46246695E-08
  1 772 1.48240398E-08
  1 773 1.49756731E-08
  1 774 1.50521538E-08
  1 775 1.50812411E-08
  1 776 1.49198474E-08
  1 777 1.45191888E-08
  1 778 1.41291148E-08
  1 779 1.41108999E-08
  1 780 1.37725910E-08
  1 781 1.35358155E-08
  1 782 1.40918652E-08
  1 783 1.45499561E-08
  1 784 1.48815526E-08
  1 785 1.51837364E-08
  1 786 1.49161046E-08
  1 787 1.47889315E-08
  1 788 1.51091317E-08
  1 789 1.56764643E-08
  1 790 1.61061323E-08
  1 791 1.67796050E-08
  1 792 1.69828264E-08
  1 793 1.68302253E-08
  1 794 1.64405243E-08
  1 795 1.61358973E-08
  1 796 1.58486997E-08
  1 797 1.57111841E-08
  1 798 1.53293829E-08
  1 799 1.48521974E-08
  1 800 1.43968706E-08
  1 801 1.50571023E-08
  1 802 1.51547048E-08
  1 803 1.52666582E-08
  1 804 1.47680482E-08
  1 805 1.47691098E-08
  1 806 1.46923680E-08
  1 807 1.46351781E-08
  1 808 1.41266411E-08
  1 809 1.37370836E-08
  1 810 1.38380380E-08
  1 811 1.40051969E-08
  1 812 1.39191448E-08
  1 813 1.41719720E-08
  1 814 1.47761997E-08
  1 815 1.54811448E-08
  1 816 1.59938935E-08
  1 817 1.61593997E-08
  1 818 1.64929754E-08
  1 819 1.66748964E-08
  1 820 1.62425850E-08
  1 821 1.63256891E-08
  1 822 1.65194289E-08
  1 823 1.64622223E-08
  1 824 1.56584189E-08
  1 825 1.47957146E-08
  1 826 1.44173139E-08
  1 827 1.39311502E-08
  1 828 1.36253794E-08
  1 829 1.32738576E-08
  1 830 1.30914220E-08
  1 831 1.31343965E-08
  1 832 1.34428417E-08
  1 833 1.37307351E-08
  1 834 1.37632850E-08
  1 835 1.38660292E-08
  1 836 1.44483952E-08
  1 837 1.55683086E-08
  1 838 1.63117844E-08
  1 839 1.69601058E-08
  1 840 1.76991763E-08
  1 841 1.77349415E-08
  1 842 1.74860243E-08
  1 843 1.75234039E-08
  1 844 1.69030451E-08
  1 845 1.65044590E-08
  1 846 1.61219814E-08
  1 847 1.58266412E-08
  1 848 1.57049377E-08
  1 849 1.57195831E-08
  1 850 1.55831118E-08
  1 851 1.54501903E-08
  1 852 1.51806185E-08
  1 853 1.50859430E-08
  1 854 1.52551138E-08
  1 855 1.54810964E-08
  1 856 1.59513059E-08
  1 857 1.60816876E-08
  1 858 1.63441764E-08
  1 859 1.65407477E-08
  1 860 1.62454124E-08
  1 861 1.58957314E-08
  1 862 1.54364886E-08
  1 863 1.49120494E-08
  1 864 1.50911760E-08
  1 865 1.52232059E-08
  1 866 1.47793547E-08
  1 867 1.42894037E-08
  1 868 1.40365472E-08
  1 869 1.44120514E-08
  1 870 1.43164483E-08
  1 871 1.41613241E-08
  1 872 1.45390323E-08
  1 873 1.46102641E-08
  1 874 1.46669983E-08
  1 875 1.39122783E-08
  1 876 1.34502822E-08
  1 877 1.34293447E-08
  1 878 1.39476971E-08
  1 879 1.47342648E-08
  1 880 1.51551846E-08
  1 881 1.51007290E-08
  1 882 1.52368723E-08
  1 883 1.51298618E-08
  1 884 1.51104115E-08
  1 885 1.54501788E-08
  1 886 1.57922996E-08
  1 887 1.60680980E-08
  1 888 1.66516066E-08
  1 889 1.70353923E-08
  1 890 1.67105710E-08
  1 891 1.60793910E-08
  1 892 1.59354109E-08
  1 893 1.56931975E-08
  1 894 1.52290278E-08
  1 895 1.48567366E-08
  1 896 1.42366298E-08
  1 897 1.40023050E-08
  1 898 1.38251365E-08
  1 899 1.38683960E-08
  1 900 1.39720679E-08
  1 901 1.45479885E-08
  1 902 1.43989628E-08
  1 903 1.43574041E-08
  1 904 1.40907931E-08
  1 905 1.43055858E-08
  1 906 1.43244886E-08
  1 907 1.44772962E-08
  1 908 1.44975008E-08
  1 909 1.48734530E-08
  1 910 1.47970098E-08
  1 911 1.50230926E-08
  1 912 1.56650848E-08
  1 913 1.58870307E-08
  1 914 1.57859865E-08
  1 915 1.60725556E-08
  1 916 1.63381211E-08
  1 917 1.65463191E-08
  1 918 1.64271772E-08
  1 919 1.62153724E-08
  1 920 1.61496914E-08
  1 921 1.57997463E-08
  1 922 1.50293889E-08
  1 923 1.44718940E-08
  1 924 1.39579173E-08
  1 925 1.34747382E-08
  1 926 1.32862951E-08
  1 927 1.29277352E-08
  1 928 1.25845846E-08
  1 929 1.27204327E-08
  1 930 1.32318951E-08
  1 931 1.33781799E-08
  1 932 1.33348749E-08
  1 933 1.39844377E-08
  1 934 1.52582110E-08
  1 935 1.61581692E-08
  1 936 1.66897927E-08
  1 937 1.75495342E-08
  1 938 1.78753194E-08
  1 939 1.77484137E-08
  1 940 1.73686008E-08
  1 941 1.68416460E-08
  1 942 1.70410277E-08
  1 943 1.71842315E-08
  1 944 1.68481294E-08
  1 945 1.60676115E-08
  1 946 1.60736834E-08
  1 947 1.56540688E-08
  1 948 1.54679176E-08
  1 949 1.54811760E-08
  1 950 1.56496790E-08
  1 951 1.59922230E-08
  1 952 1.59739654E-08
  1 953 1.62028988E-08
  1 954 1.58644522E-08
  1 955 1.58505835E-08
  1 956 1.56954365E-08
  1 957 1.53022650E-08
  1 958 1.51013560E-08
  1 959 1.47281272E-08
  1 960 1.43452969E-08
  1 961 1.44156722E-08
  1 962 1.47179450E-08
  1 963 1.43507394E-08
  1 964 1.36508444E-08
  1 965 1.35557543E-08
  1 966 1.36896921E-08
  1 967 1.36051240E-08
  1 968 1.35925397E-08
  1 969 1.39916858E-08
  1 970 1.42589484E-08
  1 971 1.42339260E-08
  1 972 1.37581256E-08
  1 973 1.33048486E-08
  1 974 1.35274322E-08
  1 975 1.43650164E-08
  1 976 1.53244737E-08
  1 977 1.58968533E-08
  1 978 1.59494774E-08
  1 979 1.56867329E-08
  1 980 1.55791070E-08
  1 981 1.54920656E-08
  1 982 1.57888479E-08
  1 983 1.60064863E-08
  1 984 1.62050721E-08
  1 985 1.66005279E-08
  1 986 1.68227152E-08
  1 987 1.64430460E-08
  1 988 1.58873209E-08
  1 989 1.57186737E-08
  1 990 1.51551668E-08
  1 991 1.46726353E-08
  1 992 1.44946839E-08
  1 993 1.41412969E-08
  1 994 1.38635621E-08
  1 995 1.35476880E-08
  1 996 1.34701864E-08
  1 997 1.39191813E-08
  1 998 1.47813205E-08
  1 999 1.52835463E-08
  1 1000 1.57840008E-08
  1 1001 1.46124534E-08
  1 1002 1.44387350E-08
  1 1003 1.47308685E-08
  1 1004 1.47340343E-08
  1 1005 1.49323806E-08
  1 1006 1.52667165E-08
  1 1007 1.53517471E-08
  1 1008 1.52410978E-08
  1 1009 1.54982180E-08
  1 1010 1.53271578E-08
  1 1011 1.54676225E-08
  1 1012 1.55766249E-08
  1 1013 1.57833204E-08
  1 1014 1.63373964E-08
  1 1015 1.64735957E-08
  1 1016 1.61090786E-08
  1 1017 1.61303520E-08
  1 1018 1.58834052E-08
  1 1019 1.52581804E-08
  1 1020 1.47508688E-08
  1 1021 1.42350217E-08
  1 1022 1.38124733E-08
  1 1023 1.37617078E-08
  1 1024 1.32158924E-08
  1 1025 1.25934710E-08
  1 1026 1.25850207E-08
  1 1027 1.30329863E-08
  1 1028 1.30576044E-08
  1 1029 1.30385959E-08
  1 1030 1.36794037E-08
  1 1031 1.49865539E-08
  1 1032 1.59605268E-08
  1 1033 1.63612973E-08
  1 1034 1.69907019E-08
  1 1035 1.76730921E-08
  1 1036 1.78384017E-08
  1 1037 1.79130257E-08
  1 1038 1.73012564E-08
  1 1039 1.74053076E-08
  1 1040 1.75783509E-08
  1 1041 1.72355562E-08
  1 1042 1.63193391E-08
  1 1043 1.61564384E-08
  1 1044 1.56242970E-08
  1 1045 1.53770167E-08
  1 1046 1.57063032E-08
  1 1047 1.58274167E-08
  1 1048 1.59790306E-08
  1 1049 1.62512878E-08
  1 1050 1.63758830E-08
  1 1051 1.57764803E-08
  1 1052 1.56159358E-08
  1 1053 1.52759913E-08
  1 1054 1.47330354E-08
  1 1055 1.43335093E-08
  1 1056 1.38477078E-08
  1 1057 1.35806197E-08
  1 1058 1.35619580E-08
  1 1059 1.40966356E-08
  1 1060 1.40307159E-08
  1 1061 1.35238059E-08
  1 1062 1.32085115E-08
  1 1063 1.29987699E-08
  1 1064 1.31889828E-08
  1 1065 1.34437768E-08
  1 1066 1.37813405E-08
  1 1067 1.42017714E-08
  1 1068 1.43363139E-08
  1 1069 1.42735368E-08
  1 1070 1.40040421E-08
  1 1071 1.41259528E-08
  1 1072 1.47151063E-08
  1 1073 1.56657249E-08
  1 1074 1.64688038E-08
  1 1075 1.62727857E-08
  1 1076 1.60894547E-08
  1 1077 1.58890122E-08
  1 1078 1.59030516E-08
  1 1079 1.61240254E-08
  1 1080 1.65284025E-08
  1 1081 1.64272274E-08
  1 1082 1.65600261E-08
  1 1083 1.65472865E-08
  1 1084 1.63286705E-08
  1 1085 1.57059677E-08
  1 1086 1.51911943E-08
  1 1087 1.47312014E-08
  1 1088 1.45974995E-08
  1 1089 1.43049077E-08
  1 1090 1.38875654E-08
  1 1091 1.33442042E-08
  1 1092 1.31011674E-08
  1 1093 1.30994165E-08
  1 1094 1.34018023E-08
  1 1095 1.43482291E-08
  1 1096 1.50492785E-08
  1 1097 1.57142733E-08
  1 1098 1.64204615E-08
  1 1099 1.66419673E-08
  1 1100 1.65731966E-08
  1 1101 1.50487349E-08
  1 1102 1.50951220E-08
  1 1103 1.53263683E-08
  1 1104 1.52440610E-08
  1 1105 1.51452361E-08
  1 1106 1.47833105E-08
  1 1107 1.48551295E-08
  1 1108 1.50981236E-08
  1 1109 1.51118870E-08
  1 1110 1.53205467E-08
  1 1111 1.59453867E-08
  1 1112 1.61575752E-08
  1 1113 1.62869128E-08
  1 1114 1.61670255E-08
  1 1115 1.59834871E-08
  1 1116 1.53793576E-08
  1 1117 1.49885260E-08
  1 1118 1.43841698E-08
  1 1119 1.38967399E-08
  1 1120 1.35794228E-08
  1 1121 1.32255192E-08
  1 1122 1.26847643E-08
  1 1123 1.25665356E-08
  1 1124 1.28445471E-08
  1 1125 1.26533633E-08
  1 1126 1.27600770E-08
  1 1127 1.32379893E-08
  1 1128 1.42513050E-08
  1 1129 1.52644063E-08
  1 1130 1.57640162E-08
  1 1131 1.65176120E-08
  1 1132 1.74211226E-08
  1 1133 1.79663274E-08
  1 1134 1.81614468E-08
  1 1135 1.81031366E-08
  1 1136 1.81438672E-08
  1 1137 1.81440999E-08
  1 1138 1.74157069E-08
  1 1139 1.67151797E-08
  1 1140 1.63389065E-08
  1 1141 1.58258190E-08
  1 1142 1.55159306E-08
  1 1143 1.58677244E-08
  1 1144 1.59064128E-08
  1 1145 1.58118709E-08
  1 1146 1.57846948E-08
  1 1147 1.59074018E-08
  1 1148 1.56267926E-08
  1 1149 1.53713597E-08
  1 1150 1.49358868E-08
  1 1151 1.40260429E-08
  1 1152 1.35727411E-08
  1 1153 1.31905149E-08
  1 1154 1.28846460E-08
  1 1155 1.28726702E-08
  1 1156 1.32186315E-08
  1 1157 1.32682649E-08
  1 1158 1.30349230E-08
  1 1159 1.27399830E-08
  1 1160 1.27835661E-08
  1 1161 1.31368816E-08
  1 1162 1.34761037E-08
  1 1163 1.38058443E-08
  1 1164 1.43378611E-08
  1 1165 1.45911249E-08
  1 1166 1.48201596E-08
  1 1167 1.48590240E-08
  1 1168 1.49846744E-08
  1 1169 1.54917500E-08
  1 1170 1.57998383E-08
  1 1171 1.61757547E-08
  1 1172 1.61050818E-08
  1 1173 1.61781874E-08
  1 1174 1.61380022E-08
  1 1175 1.63471211E-08
  1 1176 1.64443605E-08
  1 1177 1.66841757E-08
  1 1178 1.68061310E-08
  1 1179 1.66414738E-08
  1 1180 1.65647219E-08
  1 1181 1.61188068E-08
  1 1182 1.55421522E-08
  1 1183 1.51955318E-08
  1 1184 1.49269147E-08
  1 1185 1.46936124E-08
  1 1186 1.41856888E-08
  1 1187 1.34320315E-08
  1 1188 1.28948848E-08
  1 1189 1.27500195E-08
  1 1190 1.27322420E-08
  1 1191 1.31928648E-08
  1 1192 1.39989298E-08
  1 1193 1.48370820E-08
  1 1194 1.53860152E-08
  1 1195 1.58249985E-08
  1 1196 1.61742818E-08
  1 1197 1.64582966E-08
  1 1198 1.65287598E-08
  1 1199 1.64339795E-08
  1 1200 1.64051730E-08
  1 1201 1.53165893E-08
  1 1202 1.49829408E-08
  1 1203 1.48024791E-08
  1 1204 1.46566433E-08
  1 1205 1.49432159E-08
  1 1206 1.49956307E-08
  1 1207 1.53831381E-08
  1 1208 1.56533194E-08
  1 1209 1.58399664E-08
  1 1210 1.60829434E-08
  1 1211 1.62944588E-08
  1 1212 1.61873300E-08
  1 1213 1.55479789E-08
  1 1214 1.48771842E-08
  1 1215 1.41505094E-08
  1 1216 1.36559855E-08
  1 1217 1.33090810E-08
  1 1218 1.31142335E-08
  1 1219 1.27832264E-08
  1 1220 1.26854190E-08
  1 1221 1.27541685E-08
  1 1222 1.27669016E-08
  1 1223 1.27165277E-08
  1 1224 1.29009982E-08
  1 1225 1.35574128E-08
  1 1226 1.44274602E-08
  1 1227 1.53438911E-08
  1 1228 1.63080865E-08
  1 1229 1.73275190E-08
  1 1230 1.79351879E-08
  1 1231 1.79028849E-08
  1 1232 1.81928564E-08
  1 1233 1.82581789E-08
  1 1234 1.80574789E-08
  1 1235 1.75991658E-08
  1 1236 1.70974340E-08
  1 1237 1.64226091E-08
  1 1238 1.59359760E-08
  1 1239 1.55756577E-08
  1 1240 1.56969815E-08
  1 1241 1.56436879E-08
  1 1242 1.53800534E-08
  1 1243 1.51367469E-08
  1 1244 1.48722599E-08
  1 1245 1.46640242E-08
  1 1246 1.44146667E-08
  1 1247 1.41351750E-08
  1 1248 1.34171720E-08
  1 1249 1.30172772E-08
  1 1250 1.28154653E-08
  1 1251 1.25089891E-08
  1 1252 1.25189228E-08
  1 1253 1.26524448E-08
  1 1254 1.28115203E-08
  1 1255 1.28249499E-08
  1 1256 1.27375789E-08
  1 1257 1.30136833E-08
  1 1258 1.34367320E-08
  1 1259 1.38367335E-08
  1 1260 1.41889996E-08
  1 1261 1.43767022E-08
  1 1262 1.46165941E-08
  1 1263 1.49026063E-08
  1 1264 1.50810206E-08
  1 1265 1.53267744E-08
  1 1266 1.55347304E-08
  1 1267 1.57402498E-08
  1 1268 1.62308503E-08
  1 1269 1.64751874E-08
  1 1270 1.62266420E-08
  1 1271 1.60187450E-08
  1 1272 1.63301270E-08
  1 1273 1.65473397E-08
  1 1274 1.66521878E-08
  1 1275 1.68858733E-08
  1 1276 1.64114193E-08
  1 1277 1.59829785E-08
  1 1278 1.56614245E-08
  1 1279 1.52331555E-08
  1 1280 1.54051039E-08
  1 1281 1.52538104E-08
  1 1282 1.48467629E-08
  1 1283 1.42875500E-08
  1 1284 1.36114568E-08
  1 1285 1.31158038E-08
  1 1286 1.28661069E-08
  1 1287 1.28119588E-08
  1 1288 1.33609946E-08
  1 1289 1.40954794E-08