# File generated by Flopy version 3.5.0 on 03/08/2024 at 12:56:24.
BEGIN griddata
  strt
    INTERNAL  FACTOR  1.0
        15.00000000      15.00000000      15.00000000      15.00000000      15.00000000      15.00000000      15.00000000      15.00000000      15.00000000      15.00000000      15.00000000      15.00000000      15.00000000      15.00000000      15.00000000      15.00000000      15.00000000      15.00000000      15.00000000      15.00000000
        15.00000000      15.00000000      15.00000000      15.00000000      15.00000000      15.00000000      15.00000000      15.00000000      15.00000000      15.00000000      15.00000000      15.00000000      15.00000000      15.00000000      15.00000000      15.00000000      15.00000000      15.00000000      15.00000000      15.00000000
        15.00000000      15.00000000      15.00000000      15.00000000      15.00000000      15.00000000      15.00000000      15.00000000      15.00000000      15.00000000      15.00000000      15.00000000      15.00000000      15.00000000      15.00000000      15.00000000      15.00000000      15.00000000      15.00000000      15.00000000
        15.00000000      15.00000000      15.00000000      15.00000000      15.00000000      15.00000000      15.00000000      15.00000000      15.00000000      15.00000000      15.00000000      15.00000000      15.00000000      15.00000000      15.00000000      15.00000000      15.00000000      15.00000000      15.00000000      15.00000000
        15.00000000      15.00000000      15.00000000      15.00000000      15.00000000      15.00000000      15.00000000      15.00000000      15.00000000      15.00000000      15.00000000      15.00000000      15.00000000      15.00000000      15.00000000      15.00000000      15.00000000      15.00000000      15.00000000      15.00000000
        15.36423857      15.35892448      15.35198098      15.34602839      15.33246008      15.32591803      15.31736165      15.30872871      15.28647172      15.24735032      15.21576879      15.20269250      15.18828556      15.17329596      15.15622742      15.13986210      15.12818495      15.11422126      15.10009278      15.08874562
        15.08124115      15.07648874      15.07163860      15.06551234      15.06492784      15.06469314      15.06179469      15.05604733      15.05056448      15.04733527      15.04675517      15.04472550      15.04241590      15.03961551      15.03777592      15.03725485      15.03700122      15.03861780      15.04270900      15.04596868
        15.04652534      15.04581703      15.04513592      15.04712771      15.04896447      15.04983952      15.04893567      15.04724236      15.04552936      15.04508695      15.04423480      15.04588359      15.04794637      15.04716865      15.04285724      15.03715802      15.03238462      15.03008487      15.02857643      15.02731490
        15.02619937      15.02477641      15.02450283      15.02452010      15.02513125      15.02672652      15.02866923      15.02965244      15.03079330      15.03156421      15.03294816      15.03416967      15.03478830      15.03455629      15.03357010      15.03251915      15.03305387      15.03362421      15.03457414      15.03621880
        15.03769607      15.03973018      15.04240815      15.04493684      15.04701695      15.04817834      15.04826177      15.04811356      15.04704925      15.04791162      15.05000643      15.05082765      15.05011159      15.04898274      15.04819309      15.05058897      15.05385931      15.05670852      15.05820675      15.05854702
        15.71267091      15.70584028      15.69206586      15.68204310      15.66444853      15.64650631      15.61890050      15.59474104      15.56825577      15.51266855      15.44648626      15.39970687      15.36615568      15.34196220      15.31621353      15.28424603      15.25738534      15.23166857      15.20861427      15.18759403
        15.17032466      15.15959803      15.15274279      15.14222197      15.13579321      15.13105815      15.12611644      15.11915968      15.11014256      15.10146410      15.09647606      15.09230468      15.08889871      15.08439098      15.07973838      15.07795032      15.07740873      15.07911353      15.08352730      15.08844364
        15.09137010      15.09274493      15.09203508      15.09287462      15.09420453      15.09638107      15.09723765      15.09564293      15.09224451      15.09049755      15.08902324      15.09020432      15.09234600      15.09153701      15.08658783      15.07820807      15.06904104      15.06226571      15.05822247      15.05634434
        15.05571106      15.05360681      15.05202253      15.05121206      15.05205728      15.05453125      15.05766419      15.05961463      15.06182357      15.06358281      15.06535152      15.06645666      15.06727099      15.06821002      15.06794472      15.06595999      15.06496896      15.06546999      15.06746337      15.07069772
        15.07319523      15.07607738      15.08013660      15.08472509      15.08827727      15.09047917      15.09180665      15.09363926      15.09328085      15.09302433      15.09414979      15.09581823      15.09694428      15.09674387      15.09493108      15.09628232      15.10075701      15.10581900      15.10890768      15.10941913
        16.02808963      16.03529693      16.03084759      16.01517506      15.98656163      15.95964736      15.92184240      15.87861015      15.83889591      15.77429956      15.69162799      15.61599086      15.55068724      15.50225392      15.46720013      15.42973540      15.39403947      15.35419133      15.31813905      15.28992385
        15.26702990      15.25056010      15.23977483      15.22553331      15.21476633      15.20574021      15.19574104      15.18509537      15.17389600      15.16314332      15.15408434      15.14467190      15.13736438      15.13208787      15.12649792      15.12327758      15.12068097      15.12083293      15.12481230      15.13054709
        15.13445544      15.13714727      15.13789199      15.13931616      15.13982281      15.14061328      15.14199744      15.14266267      15.14081799      15.13821502      15.13441049      15.13338853      15.13559901      15.13542669      15.13031664      15.11993355      15.10819116      15.09830524      15.09088273      15.08632473
        15.08564960      15.08464227      15.08349891      15.08162863      15.08085933      15.08301813      15.08744300      15.09095550      15.09375200      15.09569882      15.09778907      15.09923792      15.09947495      15.10008428      15.10056679      15.09958399      15.09808572      15.09716548      15.09799149      15.10202376
        15.10629755      15.11035549      15.11445768      15.11952878      15.12457957      15.12865184      15.13115614      15.13403224      15.13541662      15.13615355      15.13692966      15.13757071      15.13862523      15.14012849      15.13999083      15.14045865      15.14326529      15.14783395      15.15250691      15.15441117
        16.32828838      16.33454609      16.34333569      16.34197800      16.31520784      16.27348103      16.21883673      16.15994029      16.11335535      16.04237089      15.94257239      15.84161117      15.74986258      15.67392385      15.61650657      15.56504389      15.52519101      15.48234789      15.43643045      15.39579770
        15.36343841      15.34318119      15.33236474      15.31655194      15.29985322      15.28594586      15.27241269      15.25853217      15.24244751      15.22783624      15.21677813      15.20495237      15.19283620      15.18311607      15.17464954      15.17114257      15.16827495      15.16599578      15.16701365      15.17200135
        15.17695480      15.18085309      15.18209210      15.18366088      15.18485553      15.18542293      15.18616537      15.18673969      15.18658921      15.18614743      15.18279891      15.17873316      15.17818677      15.17769854      15.17438914      15.16411111      15.14943437      15.13583282      15.12569457      15.11873388
        15.11677857      15.11584117      15.11578283      15.11510399      15.11373560      15.11409754      15.11770280      15.12238427      15.12681615      15.12953546      15.13097944      15.13192429      15.13172313      15.13208504      15.13242841      15.13170734      15.13044363      15.12940489      15.12879128      15.13146178
        15.13584703      15.14127051      15.14648326      15.15178865      15.15689569      15.16188272      15.16612400      15.17057359      15.17350100      15.17508659      15.17656281      15.17751384      15.17828019      15.17943439      15.18018882      15.18137589      15.18380724      15.18677812      15.19041078      15.19234362
        16.63337377      16.63269686      16.63616216      16.63960692      16.62901256      16.59711384      16.53346944      16.44376435      16.37626750      16.30753546      16.20876133      16.08674258      15.95985626      15.85370970      15.77501709      15.70408734      15.64921494      15.60111934      15.55336406      15.50871890
        15.46570474      15.43462519      15.42132376      15.40971756      15.39375824      15.37503965      15.35444492      15.33676373      15.31765447      15.29878260      15.28331721      15.26873599      15.25417635      15.24142175      15.22773567      15.22000659      15.21649682      15.21407453      15.21307115      15.21508570
        15.21851867      15.22291453      15.22555334      15.22749274      15.22864746      15.22882195      15.22981698      15.23065390      15.23076635      15.23096777      15.22980429      15.22626802      15.22384025      15.22063948      15.21647108      15.20734228      15.19300482      15.17693188      15.16255330      15.15194255
        15.14870593      15.14826509      15.14884993      15.14926022      15.14862589      15.14861726      15.15089875      15.15478688      15.15938171      15.16351735      15.16590258      15.16664264      15.16456535      15.16335117      15.16364857      15.16362358      15.16232888      15.16078879      15.15926168      15.16077535
        15.16424260      15.16927863      15.17503138      15.18128702      15.18718512      15.19234120      15.19670336      15.20190826      15.20708585      15.21064130      15.21294016      15.21398459      15.21508604      15.21652562      15.21746746      15.21815469      15.22025882      15.22291624      15.22611880      15.22727961
        16.93614954      16.92787203      16.92765201      16.92929279      16.92012300      16.89656328      16.84764351      16.75097163      16.65201848      16.56065431      16.45956958      16.34159767      16.19811409      16.05445276      15.93944482      15.84438764      15.77432346      15.71730055      15.66172868      15.61452266
        15.56992479      15.53219248      15.51129674      15.49855301      15.48588786      15.47054988      15.44743238      15.42265839      15.39614156      15.37271806      15.35514092      15.33820867      15.31961770      15.30357237      15.28631857      15.27375553      15.26671569      15.26223730      15.26038791      15.26110431
        15.26272815      15.26512566      15.26710101      15.26961252      15.27222349      15.27241667      15.27242367      15.27286505      15.27378111      15.27485014      15.27499565      15.27230966      15.27003466      15.26617766      15.26062896      15.24984054      15.23419505      15.21782003      15.20208427      15.18781231
        15.18111955      15.18041557      15.18232849      15.18482670      15.18530494      15.18507187      15.18638808      15.18966015      15.19356542      15.19744290      15.20011058      15.20207706      15.19990856      15.19626418      15.19414537      15.19378558      15.19346645      15.19251435      15.19000852      15.18960318
        15.19191262      15.19627786      15.20176364      15.20788413      15.21437992      15.22043182      15.22525773      15.22999322      15.23560946      15.24091042      15.24551419      15.24792542      15.24898073      15.24982677      15.25107907      15.25209897      15.25371859      15.25542240      15.25831127      15.25992415
        17.25948477      17.23430372      17.21518407      17.21162110      17.20484513      17.18375208      17.14074579      17.04842584      16.93823376      16.82840648      16.70745071      16.57894152      16.43143135      16.27588610      16.13149820      15.99663014      15.89533692      15.82716745      15.76654644      15.71578388
        15.66925380      15.62859558      15.60414496      15.58994456      15.57659602      15.56260681      15.54220022      15.51808521      15.48595132      15.45137290      15.42663574      15.40889691      15.39021735      15.37137663      15.34873132      15.33017014      15.31999275      15.31315910      15.30907275      15.30776823
        15.30860212      15.31019774      15.31045520      15.31063862      15.31325863      15.31496939      15.31583096      15.31545239      15.31516698      15.31633915      15.31855349      15.31785690      15.31565917      15.31111948      15.30541796      15.29465233      15.27631859      15.25619554      15.23876207      15.22382638
        15.21557256      15.21380266      15.21544045      15.21980646      15.22304536      15.22431431      15.22453799      15.22624197      15.22936151      15.23304967      15.23505912      15.23681692      15.23520656      15.23104170      15.22674202      15.22387251      15.22257030      15.22246594      15.22097298      15.21954188
        15.21970415      15.22226480      15.22724277      15.23307719      15.23948760      15.24571391      15.25119472      15.25605600      15.26154009      15.26696026      15.27260972      15.27711017      15.28005421      15.28113803      15.28149879      15.28197014      15.28370379      15.28531753      15.28749809      15.28888873
        17.58288394      17.55765265      17.52045899      17.49436631      17.47470179      17.45524799      17.42343715      17.33933960      17.21718168      17.09267405      16.96115621      16.82296495      16.65861147      16.48626925      16.33002062      16.17253298      16.03349659      15.93480686      15.85834290      15.80525902
        15.76556682      15.72698505      15.69774970      15.68097754      15.66853128      15.65586883      15.63548559      15.61161221      15.58064977      15.54034095      15.50480310      15.47888820      15.45807906      15.44075707      15.41783550      15.39257612      15.37521903      15.36469192      15.35953847      15.35673330
        15.35567526      15.35609650      15.35586192      15.35424250      15.35483956      15.35566923      15.35726107      15.35823857      15.35789055      15.35754551      15.35916368      15.36031151      15.36042021      15.35673980      15.34994790      15.33864935      15.31889539      15.29484683      15.27226711      15.25444292
        15.24733603      15.24791332      15.25066150      15.25551107      15.26002380      15.26382801      15.26559180      15.26648655      15.26747311      15.26967665      15.27096122      15.27250013      15.27090696      15.26580443      15.26004163      15.25533163      15.25226144      15.25096648      15.24977759      15.24885346
        15.24848290      15.24897417      15.25206722      15.25679379      15.26300058      15.26936181      15.27509622      15.27980908      15.28511474      15.29056988      15.29639512      15.30163164      15.30607137      15.30887330      15.30983469      15.30947506      15.30990845      15.31114216      15.31337282      15.31517945
        17.89295978      17.86696369      17.82851599      17.79481742      17.75545683      17.71546005      17.68085573      17.61620744      17.50196624      17.35985984      17.20304798      17.05618590      16.88917642      16.70216692      16.52534360      16.34977236      16.18633642      16.05720962      15.94759544      15.87336339
        15.84558423      15.82299721      15.79839729      15.77636809      15.75912451      15.74677627      15.72919221      15.70593177      15.67489454      15.63119074      15.58891975      15.55481232      15.52664561      15.50582553      15.48483275      15.45956990      15.43700797      15.41909213      15.40947515      15.40564791
        15.40447215      15.40434053      15.40300684      15.39939742      15.39820815      15.39779905      15.39825816      15.39924525      15.39977685      15.39985609      15.40058637      15.40100050      15.40156587      15.40017528      15.39509198      15.38409767      15.36084146      15.32979860      15.29919619      15.27495485
        15.27363784      15.28028507      15.28692000      15.29378595      15.29922077      15.30364121      15.30647277      15.30840259      15.30932185      15.30976300      15.30823917      15.30801857      15.30714241      15.30241154      15.29495296      15.28720971      15.28209330      15.27964431      15.27786401      15.27633860
        15.27584884      15.27575747      15.27758867      15.28043723      15.28511724      15.29109595      15.29734742      15.30231253      15.30702334      15.31186046      15.31751380      15.32318758      15.32830745      15.33209154      15.33414058      15.33447958      15.33426831      15.33412040      15.33511316      15.33712230
        18.20555643      18.17727420      18.12848331      18.08871756      18.04496192      17.99152382      17.93674245      17.86553140      17.75967740      17.62663797      17.45940517      17.29009459      17.10738784      16.91257705      16.73075716      16.54148359      16.34694381      16.18183413      16.03043061      15.90819739
        15.91100938      15.91059424      15.89836760      15.87921043      15.85778749      15.83881795      15.81817868      15.79606537      15.76992209      15.72611964      15.67554156      15.63224084      15.59772923      15.57242453      15.54957803      15.52348794      15.49979818      15.47825251      15.46304976      15.45473369
        15.45162565      15.45237416      15.45268425      15.44825801      15.44369508      15.44093666      15.44031524      15.44114636      15.44137639      15.44136764      15.44210817      15.44257772      15.44250378      15.44086718      15.43654578      15.42850182      15.40590686      15.36564034      15.31546353      15.26766049
        15.29093855      15.31225245      15.32532569      15.33415389      15.34061900      15.34584735      15.34908566      15.35071182      15.35181892      15.35266985      15.34990927      15.34623585      15.34324835      15.33834481      15.33126700      15.32154427      15.31284203      15.30763122      15.30498923      15.30317846
        15.30232540      15.30137675      15.30236723      15.30422470      15.30727706      15.31181427      15.31753323      15.32283403      15.32768385      15.33206269      15.33680695      15.34210671      15.34750788      15.35220663      15.35511762      15.35595743      15.35569753      15.35509377      15.35484303      15.35596550
        18.50509212      18.47773533      18.42825529      18.38176969      18.32912388      18.26708536      18.20241214      18.12287186      18.00737046      17.86968618      17.70499119      17.53700523      17.34556730      17.12308802      16.92089155      16.73110995      16.52902454      16.33077284      16.11039886      15.82795290
        15.97484063      16.00764555      16.00227642      15.98198668      15.95893526      15.93733866      15.91134192      15.88186329      15.85569629      15.81829960      15.76898634      15.71673167      15.67003989      15.63772133      15.61390765      15.58759099      15.56143767      15.53650328      15.51805656      15.50685140
        15.49993913      15.49851704      15.50017519      15.49862250      15.49389988      15.48786691      15.48337422      15.48305921      15.48373942      15.48408363      15.48402388      15.48380744      15.48366920      15.48230867      15.47730499      15.46967160      15.45024192      15.40831510      15.33136792      15.17188623
        15.30412390      15.34831057      15.36830901      15.37902460      15.38506050      15.38948830      15.39321593      15.39505627      15.39564660      15.39600117      15.39338664      15.38832811      15.38294182      15.37516153      15.36651237      15.35597518      15.34552256      15.33728471      15.33170863      15.32832884
        15.32740494      15.32632215      15.32637651      15.32717844      15.32891372      15.33218949      15.33684302      15.34164052      15.34631816      15.35076331      15.35512848      15.35975539      15.36444859      15.36919105      15.37292786      15.37482872      15.37478498      15.37370326      15.37260263      15.37316743
        18.81080712      18.76818658      18.70923277      18.66468741      18.61687928      18.54920721      18.46955221      18.38181549      18.26500711      18.12078406      17.94077588      17.76351249      17.58356677      17.35797932      17.12773311      16.91315165      16.70740366      16.52089230      16.33196208      16.16014205
        16.14479210      16.13505578      16.11781264      16.09076588      16.06008437      16.03379460      16.00654230      15.97242711      15.94038450      15.90179370      15.85546422      15.80461960      15.75086826      15.70669320      15.67527173      15.64790091      15.62272656      15.59628848      15.57314259      15.55868687
        15.54926394      15.54564540      15.54645556      15.54634247      15.54367498      15.53838781      15.53129996      15.52723553      15.52573902      15.52642637      15.52737861      15.52698543      15.52546470      15.52344045      15.51864301      15.51245422      15.49802183      15.46699594      15.41829651      15.36243764
        15.38362246      15.40412608      15.41748062      15.42696786      15.43325521      15.43646368      15.43856006      15.43942470      15.44014211      15.44082538      15.43836390      15.43185015      15.42482257      15.41523875      15.40419666      15.39051346      15.37734857      15.36752931      15.35999960      15.35392389
        15.35093736      15.34920154      15.34904858      15.34957143      15.35004849      15.35175573      15.35522255      15.35946275      15.36365039      15.36774372      15.37178813      15.37616793      15.38030406      15.38443250      15.38800526      15.39063263      15.39163964      15.39098532      15.38908843      15.38859411
        19.11325396      19.06811675      18.99106984      18.92686506      18.88137573      18.82752306      18.75222514      18.65196303      18.52118958      18.37310030      18.18837715      17.99231698      17.80408725      17.57902560      17.34476173      17.11614093      16.89208396      16.69962440      16.53690989      16.39781979
        16.32469030      16.27263252      16.23263599      16.19754478      16.16202990      16.13042723      16.09907400      16.06107567      16.02575216      15.98597059      15.93756490      15.88554315      15.83052455      15.78173788      15.74231827      15.70748690      15.67900341      15.65351468      15.62964421      15.61233102
        15.59874915      15.59189259      15.59196632      15.59315969      15.59187734      15.58779078      15.58090689      15.57542326      15.57106340      15.56905476      15.56958640      15.57044764      15.56986696      15.56735037      15.56102609      15.55499397      15.54698185      15.52917691      15.50026667      15.47009582
        15.46387666      15.46697792      15.47102957      15.47560427      15.48099857      15.48460126      15.48671175      15.48577026      15.48393942      15.48390283      15.48326600      15.47771078      15.46892019      15.45652609      15.44363049      15.42806705      15.41104078      15.39746176      15.38768313      15.38002287
        15.37511908      15.37133553      15.36951351      15.36988939      15.37033383      15.37109851      15.37291183      15.37602656      15.37968552      15.38352502      15.38712719      15.39103005      15.39474733      15.39849056      15.40173414      15.40421012      15.40554460      15.40584209      15.40458769      15.40358341
        19.38563749      19.34474610      19.27020503      19.19428103      19.13601965      19.07967289      19.01791074      18.93169678      18.80012856      18.63226024      18.42556979      18.21223033      18.02393733      17.79895869      17.55196675      17.31231580      17.08305708      16.88222404      16.71436241      16.57357329
        16.48250017      16.41100093      16.35049361      16.29975784      16.25474997      16.22099196      16.19086184      16.15049386      16.10791968      16.06537148      16.01777984      15.96631235      15.90770629      15.85399476      15.81106734      15.77224603      15.73794822      15.70796561      15.68189234      15.66493526
        15.65051499      15.63958179      15.63605308      15.63720031      15.63825402      15.63659353      15.63034246      15.62395277      15.61849947      15.61462603      15.61340359      15.61330930      15.61358703      15.61316773      15.60777939      15.60021875      15.59361626      15.58446273      15.57054361      15.55136262
        15.53657920      15.52903640      15.52577956      15.52539935      15.52819047      15.53054843      15.53300107      15.53272701      15.52941086      15.52646019      15.52497081      15.52131443      15.51447947      15.50147694      15.48525015      15.46644624      15.44599645      15.42908828      15.41600054      15.40551895
        15.39874927      15.39363398      15.38983639      15.38869868      15.38846986      15.38902601      15.39009589      15.39201271      15.39454099      15.39773118      15.40102769      15.40466553      15.40800793      15.41119548      15.41407187      15.41640621      15.41775767      15.41823289      15.41753722      15.41682106
        19.63790585      19.60230460      19.52995577      19.44881851      19.38617124      19.32368641      19.25957996      19.18005661      19.06621721      18.90943438      18.68800392      18.43015129      18.21844549      18.00339816      17.76471210      17.51271480      17.26113284      17.04700591      16.87495087      16.72467932
        16.61427814      16.52958003      16.46004885      16.40222585      16.34550607      16.30104768      16.26952424      16.23404851      16.19168654      16.14425772      16.09146420      16.04081248      15.98461552      15.92862725      15.87993314      15.83623792      15.79881027      15.76589606      15.73444801      15.71349508
        15.69924016      15.68804180      15.68197639      15.68038840      15.68095980      15.68168692      15.67882835      15.67351142      15.66687820      15.66085504      15.65869588      15.65806633      15.65792618      15.65811157      15.65520181      15.64905308      15.64292635      15.63548927      15.62743985      15.61644246
        15.60330245      15.59078644      15.58006556      15.57367853      15.57390890      15.57516951      15.57679642      15.57667140      15.57349982      15.56945162      15.56615900      15.56164853      15.55568062      15.54507268      15.52964434      15.50861275      15.48231052      15.46033323      15.44467709      15.43207602
        15.42275796      15.41552624      15.40975961      15.40711708      15.40564231      15.40522500      15.40562612      15.40695473      15.40877213      15.41103518      15.41348613      15.41663225      15.41983109      15.42271266      15.42511827      15.42694772      15.42813889      15.42877967      15.42850536      15.42787711
        19.85264786      19.83270945      19.77684234      19.69269804      19.61854458      19.55001513      19.48731389      19.41022750      19.30072960      19.15645907      18.95286632      18.67564478      18.41665167      18.17539314      17.93903630      17.70170061      17.44614766      17.20700607      17.01178404      16.85020746
        16.72913408      16.63385335      16.55260370      16.49004510      16.42985323      16.37778400      16.33929530      16.30350976      16.26500890      16.22184011      16.16821924      16.11302192      16.05394427      15.99803447      15.94975646      15.90286867      15.85964918      15.82301100      15.78835077      15.76326883
        15.74660367      15.73386416      15.72691030      15.72420820      15.72368536      15.72383296      15.72247970      15.72008805      15.71604513      15.70938540      15.70488900      15.70290321      15.70294893      15.70411073      15.70291898      15.69773094      15.69254468      15.68664021      15.68036596      15.67120257
        15.65963153      15.64821354      15.63543967      15.62305931      15.61755064      15.61639298      15.61764558      15.61828942      15.61506425      15.60972928      15.60514607      15.60032280      15.59418144      15.58402329      15.56995051      15.55143586      15.52360369      15.49485567      15.47299433      15.45748731
        15.44696012      15.43840543      15.43006275      15.42488119      15.42194714      15.42058413      15.42007328      15.42041395      15.42162139      15.42337103      15.42506847      15.42725670      15.42987720      15.43247169      15.43473894      15.43627206      15.43705035      15.43743932      15.43748523      15.43718741
        20.04585255      20.02745758      19.98886633      19.92191731      19.84748539      19.76323325      19.68727051      19.61239872      19.51300089      19.37698463      19.18421370      18.90551578      18.62137881      18.35176822      18.08907791      17.84550421      17.59917143      17.36273127      17.14947313      16.95932765
        16.81672830      16.71618390      16.63130925      16.56486638      16.50116498      16.44453194      16.40259389      16.36607515      16.32760499      16.28690547      16.23814498      16.18618996      16.12512359      16.06240458      16.01145713      15.96630297      15.92334071      15.88331634      15.84267736      15.81199966