# File generated by Flopy version 3.6.0 on 05/08/2024 at 11:31:22.
BEGIN options
END options

BEGIN dimensions
  MAXBOUND  800
END dimensions

BEGIN period  1
  1 5162 1.35820000E+01 5.00000000E-04 1.15820000E+01
  1 5163 1.35820000E+01 5.00000000E-04 1.15820000E+01
  1 5166 1.35820000E+01 5.00000000E-04 1.15820000E+01
  1 5167 1.35820000E+01 5.00000000E-04 1.15820000E+01
  1 5172 1.35820000E+01 5.00000000E-04 1.15820000E+01
  1 5173 1.35820000E+01 5.00000000E-04 1.15820000E+01
  1 5176 1.35820000E+01 5.00000000E-04 1.15820000E+01
  1 5177 1.35820000E+01 5.00000000E-04 1.15820000E+01
  1 5184 1.35820000E+01 5.00000000E-04 1.15820000E+01
  1 5185 1.35820000E+01 5.00000000E-04 1.15820000E+01
  1 5188 1.35820000E+01 5.00000000E-04 1.15820000E+01
  1 5189 1.35820000E+01 5.00000000E-04 1.15820000E+01
  1 5194 1.35820000E+01 5.00000000E-04 1.15820000E+01
  1 5195 1.35820000E+01 5.00000000E-04 1.15820000E+01
  1 5198 1.35820000E+01 5.00000000E-04 1.15820000E+01
  1 5199 1.35820000E+01 5.00000000E-04 1.15820000E+01
  1 5206 1.35820000E+01 5.00000000E-04 1.15820000E+01
  1 5207 1.35820000E+01 5.00000000E-04 1.15820000E+01
  1 5210 1.35820000E+01 5.00000000E-04 1.15820000E+01
  1 5211 1.35820000E+01 5.00000000E-04 1.15820000E+01
  1 5216 1.35820000E+01 5.00000000E-04 1.15820000E+01
  1 5217 1.35820000E+01 5.00000000E-04 1.15820000E+01
  1 5220 1.35820000E+01 5.00000000E-04 1.15820000E+01
  1 5221 1.35820000E+01 5.00000000E-04 1.15820000E+01
  1 5228 1.35820000E+01 5.00000000E-04 1.15820000E+01
  1 5229 1.35820000E+01 5.00000000E-04 1.15820000E+01
  1 5232 1.35820000E+01 5.00000000E-04 1.15820000E+01
  1 5233 1.35820000E+01 5.00000000E-04 1.15820000E+01
  1 5238 1.35820000E+01 5.00000000E-04 1.15820000E+01
  1 5239 1.35820000E+01 5.00000000E-04 1.15820000E+01
  1 5242 1.35820000E+01 5.00000000E-04 1.15820000E+01
  1 5243 1.35820000E+01 5.00000000E-04 1.15820000E+01
  1 5250 1.35820000E+01 5.00000000E-04 1.15820000E+01
  1 5251 1.35820000E+01 5.00000000E-04 1.15820000E+01
  1 5254 1.35820000E+01 5.00000000E-04 1.15820000E+01
  1 5255 1.35820000E+01 5.00000000E-04 1.15820000E+01
  1 5260 1.35820000E+01 5.00000000E-04 1.15820000E+01
  1 5261 1.35820000E+01 5.00000000E-04 1.15820000E+01
  1 5264 1.35820000E+01 5.00000000E-04 1.15820000E+01
  1 5265 1.35820000E+01 5.00000000E-04 1.15820000E+01
  1 5272 1.35820000E+01 5.00000000E-04 1.15820000E+01
  1 5273 1.35820000E+01 5.00000000E-04 1.15820000E+01
  1 5276 1.35820000E+01 5.00000000E-04 1.15820000E+01
  1 5277 1.35820000E+01 5.00000000E-04 1.15820000E+01
  1 5282 1.35820000E+01 5.00000000E-04 1.15820000E+01
  1 5283 1.35820000E+01 5.00000000E-04 1.15820000E+01
  1 5286 1.35820000E+01 5.00000000E-04 1.15820000E+01
  1 5287 1.35820000E+01 5.00000000E-04 1.15820000E+01
  1 5294 1.35820000E+01 5.00000000E-04 1.15820000E+01
  1 5295 1.35820000E+01 5.00000000E-04 1.15820000E+01
  1 5298 1.35820000E+01 5.00000000E-04 1.15820000E+01
  1 5299 1.35820000E+01 5.00000000E-04 1.15820000E+01
  1 5304 1.35820000E+01 5.00000000E-04 1.15820000E+01
  1 5305 1.35820000E+01 5.00000000E-04 1.15820000E+01
  1 5308 1.35820000E+01 5.00000000E-04 1.15820000E+01
  1 5309 1.35820000E+01 5.00000000E-04 1.15820000E+01
  1 5316 1.35820000E+01 5.00000000E-04 1.15820000E+01
  1 5317 1.35820000E+01 5.00000000E-04 1.15820000E+01
  1 5320 1.35820000E+01 5.00000000E-04 1.15820000E+01
  1 5321 1.35820000E+01 5.00000000E-04 1.15820000E+01
  1 5326 1.35820000E+01 5.00000000E-04 1.15820000E+01
  1 5327 1.35820000E+01 5.00000000E-04 1.15820000E+01
  1 5330 1.35820000E+01 5.00000000E-04 1.15820000E+01
  1 5331 1.35820000E+01 5.00000000E-04 1.15820000E+01
  1 5338 1.35820000E+01 5.00000000E-04 1.15820000E+01
  1 5339 1.35820000E+01 5.00000000E-04 1.15820000E+01
  1 5342 1.35820000E+01 5.00000000E-04 1.15820000E+01
  1 5343 1.35820000E+01 5.00000000E-04 1.15820000E+01
  1 5348 1.35820000E+01 5.00000000E-04 1.15820000E+01
  1 5349 1.35820000E+01 5.00000000E-04 1.15820000E+01
  1 5352 1.35820000E+01 5.00000000E-04 1.15820000E+01
  1 5353 1.35820000E+01 5.00000000E-04 1.15820000E+01
  1 5360 1.35820000E+01 5.00000000E-04 1.15820000E+01
  1 5361 1.35820000E+01 5.00000000E-04 1.15820000E+01
  1 5364 1.35820000E+01 5.00000000E-04 1.15820000E+01
  1 5365 1.35820000E+01 5.00000000E-04 1.15820000E+01
  1 5370 1.35820000E+01 5.00000000E-04 1.15820000E+01
  1 5371 1.35820000E+01 5.00000000E-04 1.15820000E+01
  1 5374 1.35820000E+01 5.00000000E-04 1.15820000E+01
  1 5375 1.35820000E+01 5.00000000E-04 1.15820000E+01
  1 5382 1.35820000E+01 5.00000000E-04 1.15820000E+01
  1 5383 1.35820000E+01 5.00000000E-04 1.15820000E+01
  1 5386 1.35820000E+01 5.00000000E-04 1.15820000E+01
  1 5387 1.35820000E+01 5.00000000E-04 1.15820000E+01
  1 5392 1.35820000E+01 5.00000000E-04 1.15820000E+01
  1 5393 1.35820000E+01 5.00000000E-04 1.15820000E+01
  1 5396 1.35820000E+01 5.00000000E-04 1.15820000E+01
  1 5397 1.35820000E+01 5.00000000E-04 1.15820000E+01
  1 5404 1.35820000E+01 5.00000000E-04 1.15820000E+01
  1 5405 1.35820000E+01 5.00000000E-04 1.15820000E+01
  1 5408 1.35820000E+01 5.00000000E-04 1.15820000E+01
  1 5409 1.35820000E+01 5.00000000E-04 1.15820000E+01
  1 5414 1.35820000E+01 5.00000000E-04 1.15820000E+01
  1 5415 1.35820000E+01 5.00000000E-04 1.15820000E+01
  1 5418 1.35820000E+01 5.00000000E-04 1.15820000E+01
  1 5419 1.35820000E+01 5.00000000E-04 1.15820000E+01
  1 5426 1.35820000E+01 5.00000000E-04 1.15820000E+01
  1 5427 1.35820000E+01 5.00000000E-04 1.15820000E+01
  1 5430 1.35820000E+01 5.00000000E-04 1.15820000E+01
  1 5431 1.35820000E+01 5.00000000E-04 1.15820000E+01
  1 5436 1.35820000E+01 5.00000000E-04 1.15820000E+01
  1 5437 1.35820000E+01 5.00000000E-04 1.15820000E+01
  1 5440 1.35820000E+01 5.00000000E-04 1.15820000E+01
  1 5441 1.35820000E+01 5.00000000E-04 1.15820000E+01
  1 5448 1.35820000E+01 5.00000000E-04 1.15820000E+01
  1 5449 1.35820000E+01 5.00000000E-04 1.15820000E+01
  1 5452 1.35820000E+01 5.00000000E-04 1.15820000E+01
  1 5453 1.35820000E+01 5.00000000E-04 1.15820000E+01
  1 5458 1.35820000E+01 5.00000000E-04 1.15820000E+01
  1 5459 1.35820000E+01 5.00000000E-04 1.15820000E+01
  1 5462 1.35820000E+01 5.00000000E-04 1.15820000E+01
  1 5463 1.35820000E+01 5.00000000E-04 1.15820000E+01
  1 5470 1.35820000E+01 5.00000000E-04 1.15820000E+01
  1 5471 1.35820000E+01 5.00000000E-04 1.15820000E+01
  1 5474 1.35820000E+01 5.00000000E-04 1.15820000E+01
  1 5475 1.35820000E+01 5.00000000E-04 1.15820000E+01
  1 5480 1.35820000E+01 5.00000000E-04 1.15820000E+01
  1 5481 1.35820000E+01 5.00000000E-04 1.15820000E+01
  1 5484 1.35820000E+01 5.00000000E-04 1.15820000E+01
  1 5485 1.35820000E+01 5.00000000E-04 1.15820000E+01
  1 5492 1.35820000E+01 5.00000000E-04 1.15820000E+01
  1 5493 1.35820000E+01 5.00000000E-04 1.15820000E+01
  1 5496 1.35820000E+01 5.00000000E-04 1.15820000E+01
  1 5497 1.35820000E+01 5.00000000E-04 1.15820000E+01
  1 5502 1.35820000E+01 5.00000000E-04 1.15820000E+01
  1 5503 1.35820000E+01 5.00000000E-04 1.15820000E+01
  1 5506 1.35820000E+01 5.00000000E-04 1.15820000E+01
  1 5507 1.35820000E+01 5.00000000E-04 1.15820000E+01
  1 5514 1.35820000E+01 5.00000000E-04 1.15820000E+01
  1 5515 1.35820000E+01 5.00000000E-04 1.15820000E+01
  1 5518 1.35820000E+01 5.00000000E-04 1.15820000E+01
  1 5519 1.35820000E+01 5.00000000E-04 1.15820000E+01
  1 5524 1.35820000E+01 5.00000000E-04 1.15820000E+01
  1 5525 1.35820000E+01 5.00000000E-04 1.15820000E+01
  1 5528 1.35820000E+01 5.00000000E-04 1.15820000E+01
  1 5529 1.35820000E+01 5.00000000E-04 1.15820000E+01
  1 5536 1.35820000E+01 5.00000000E-04 1.15820000E+01
  1 5537 1.35820000E+01 5.00000000E-04 1.15820000E+01
  1 5540 1.35820000E+01 5.00000000E-04 1.15820000E+01
  1 5541 1.35820000E+01 5.00000000E-04 1.15820000E+01
  1 5546 1.35820000E+01 5.00000000E-04 1.15820000E+01
  1 5547 1.35820000E+01 5.00000000E-04 1.15820000E+01
  1 5550 1.35820000E+01 5.00000000E-04 1.15820000E+01
  1 5551 1.35820000E+01 5.00000000E-04 1.15820000E+01
  1 5558 1.35820000E+01 5.00000000E-04 1.15820000E+01
  1 5559 1.35820000E+01 5.00000000E-04 1.15820000E+01
  1 5562 1.35820000E+01 5.00000000E-04 1.15820000E+01
  1 5563 1.35820000E+01 5.00000000E-04 1.15820000E+01
  1 5568 1.35820000E+01 5.00000000E-04 1.15820000E+01
  1 5569 1.35820000E+01 5.00000000E-04 1.15820000E+01
  1 5572 1.35820000E+01 5.00000000E-04 1.15820000E+01
  1 5573 1.35820000E+01 5.00000000E-04 1.15820000E+01
  1 5580 1.35820000E+01 5.00000000E-04 1.15820000E+01
  1 5581 1.35820000E+01 5.00000000E-04 1.15820000E+01
  1 5584 1.35820000E+01 5.00000000E-04 1.15820000E+01
  1 5585 1.35820000E+01 5.00000000E-04 1.15820000E+01
  1 5590 1.35820000E+01 5.00000000E-04 1.15820000E+01
  1 5591 1.35820000E+01 5.00000000E-04 1.15820000E+01
  1 5594 1.35820000E+01 5.00000000E-04 1.15820000E+01
  1 5595 1.35820000E+01 5.00000000E-04 1.15820000E+01
  1 5602 1.35820000E+01 5.00000000E-04 1.15820000E+01
  1 5603 1.35820000E+01 5.00000000E-04 1.15820000E+01
  1 5606 1.35820000E+01 5.00000000E-04 1.15820000E+01
  1 5607 1.35820000E+01 5.00000000E-04 1.15820000E+01
  1 5612 1.35820000E+01 5.00000000E-04 1.15820000E+01
  1 5613 1.35820000E+01 5.00000000E-04 1.15820000E+01
  1 5616 1.35820000E+01 5.00000000E-04 1.15820000E+01
  1 5617 1.35820000E+01 5.00000000E-04 1.15820000E+01
  1 5624 1.35820000E+01 5.00000000E-04 1.15820000E+01
  1 5625 1.35820000E+01 5.00000000E-04 1.15820000E+01
  1 5628 1.35820000E+01 5.00000000E-04 1.15820000E+01
  1 5629 1.35820000E+01 5.00000000E-04 1.15820000E+01
  1 5634 1.35820000E+01 5.00000000E-04 1.15820000E+01
  1 5635 1.35820000E+01 5.00000000E-04 1.15820000E+01
  1 5638 1.35820000E+01 5.00000000E-04 1.15820000E+01
  1 5639 1.35820000E+01 5.00000000E-04 1.15820000E+01
  1 5646 1.35820000E+01 5.00000000E-04 1.15820000E+01
  1 5647 1.35820000E+01 5.00000000E-04 1.15820000E+01
  1 5650 1.35820000E+01 5.00000000E-04 1.15820000E+01
  1 5651 1.35820000E+01 5.00000000E-04 1.15820000E+01
  1 5656 1.35820000E+01 5.00000000E-04 1.15820000E+01
  1 5657 1.35820000E+01 5.00000000E-04 1.15820000E+01
  1 5660 1.35820000E+01 5.00000000E-04 1.15820000E+01
  1 5661 1.35820000E+01 5.00000000E-04 1.15820000E+01
  1 5668 1.35820000E+01 5.00000000E-04 1.15820000E+01
  1 5669 1.35820000E+01 5.00000000E-04 1.15820000E+01
  1 5672 1.35820000E+01 5.00000000E-04 1.15820000E+01
  1 5673 1.35820000E+01 5.00000000E-04 1.15820000E+01
  1 5678 1.35820000E+01 5.00000000E-04 1.15820000E+01
  1 5679 1.35820000E+01 5.00000000E-04 1.15820000E+01
  1 5682 1.35820000E+01 5.00000000E-04 1.15820000E+01
  1 5683 1.35820000E+01 5.00000000E-04 1.15820000E+01
  1 5690 1.35820000E+01 5.00000000E-04 1.15820000E+01
  1 5691 1.35820000E+01 5.00000000E-04 1.15820000E+01
  1 5694 1.35820000E+01 5.00000000E-04 1.15820000E+01
  1 5695 1.35820000E+01 5.00000000E-04 1.15820000E+01
  1 5700 1.35820000E+01 5.00000000E-04 1.15820000E+01
  1 5701 1.35820000E+01 5.00000000E-04 1.15820000E+01
  1 5704 1.35820000E+01 5.00000000E-04 1.15820000E+01
  1 5705 1.35820000E+01 5.00000000E-04 1.15820000E+01
  1 5712 1.35820000E+01 5.00000000E-04 1.15820000E+01
  1 5713 1.35820000E+01 5.00000000E-04 1.15820000E+01
  1 5716 1.35820000E+01 5.00000000E-04 1.15820000E+01
  1 5717 1.35820000E+01 5.00000000E-04 1.15820000E+01
  1 5722 1.35820000E+01 5.00000000E-04 1.15820000E+01
  1 5723 1.35820000E+01 5.00000000E-04 1.15820000E+01
  1 5726 1.35820000E+01 5.00000000E-04 1.15820000E+01
  1 5727 1.35820000E+01 5.00000000E-04 1.15820000E+01
  1 5734 1.35820000E+01 5.00000000E-04 1.15820000E+01
  1 5735 1.35820000E+01 5.00000000E-04 1.15820000E+01
  1 5738 1.35820000E+01 5.00000000E-04 1.15820000E+01
  1 5739 1.35820000E+01 5.00000000E-04 1.15820000E+01
  1 5744 1.35820000E+01 5.00000000E-04 1.15820000E+01
  1 5745 1.35820000E+01 5.00000000E-04 1.15820000E+01
  1 5748 1.35820000E+01 5.00000000E-04 1.15820000E+01
  1 5749 1.35820000E+01 5.00000000E-04 1.15820000E+01
  1 5756 1.35820000E+01 5.00000000E-04 1.15820000E+01
  1 5757 1.35820000E+01 5.00000000E-04 1.15820000E+01
  1 5760 1.35820000E+01 5.00000000E-04 1.15820000E+01
  1 5761 1.35820000E+01 5.00000000E-04 1.15820000E+01
  1 5766 1.35820000E+01 5.00000000E-04 1.15820000E+01
  1 5767 1.35820000E+01 5.00000000E-04 1.15820000E+01
  1 5770 1.35820000E+01 5.00000000E-04 1.15820000E+01
  1 5771 1.35820000E+01 5.00000000E-04 1.15820000E+01
  1 5778 1.35820000E+01 5.00000000E-04 1.15820000E+01
  1 5779 1.35820000E+01 5.00000000E-04 1.15820000E+01
  1 5782 1.35820000E+01 5.00000000E-04 1.15820000E+01
  1 5783 1.35820000E+01 5.00000000E-04 1.15820000E+01
  1 5788 1.35820000E+01 5.00000000E-04 1.15820000E+01
  1 5789 1.35820000E+01 5.00000000E-04 1.15820000E+01
  1 5792 1.35820000E+01 5.00000000E-04 1.15820000E+01
  1 5793 1.35820000E+01 5.00000000E-04 1.15820000E+01
  1 5800 1.35820000E+01 5.00000000E-04 1.15820000E+01
  1 5801 1.35820000E+01 5.00000000E-04 1.15820000E+01
  1 5804 1.35820000E+01 5.00000000E-04 1.15820000E+01
  1 5805 1.35820000E+01 5.00000000E-04 1.15820000E+01
  1 5810 1.35820000E+01 5.00000000E-04 1.15820000E+01
  1 5811 1.35820000E+01 5.00000000E-04 1.15820000E+01
  1 5814 1.35820000E+01 5.00000000E-04 1.15820000E+01
  1 5815 1.35820000E+01 5.00000000E-04 1.15820000E+01
  1 5822 1.35820000E+01 5.00000000E-04 1.15820000E+01
  1 5823 1.35820000E+01 5.00000000E-04 1.15820000E+01
  1 5826 1.35820000E+01 5.00000000E-04 1.15820000E+01
  1 5827 1.35820000E+01 5.00000000E-04 1.15820000E+01
  1 5832 1.35820000E+01 5.00000000E-04 1.15820000E+01
  1 5833 1.35820000E+01 5.00000000E-04 1.15820000E+01
  1 5836 1.35820000E+01 5.00000000E-04 1.15820000E+01
  1 5837 1.35820000E+01 5.00000000E-04 1.15820000E+01
  1 5844 1.35820000E+01 5.00000000E-04 1.15820000E+01
  1 5845 1.35820000E+01 5.00000000E-04 1.15820000E+01
  1 5848 1.35820000E+01 5.00000000E-04 1.15820000E+01
  1 5849 1.35820000E+01 5.00000000E-04 1.15820000E+01
  1 5854 1.35820000E+01 5.00000000E-04 1.15820000E+01
  1 5855 1.35820000E+01 5.00000000E-04 1.15820000E+01
  1 5858 1.35820000E+01 5.00000000E-04 1.15820000E+01
  1 5859 1.35820000E+01 5.00000000E-04 1.15820000E+01
  1 5866 1.35820000E+01 5.00000000E-04 1.15820000E+01
  1 5867 1.35820000E+01 5.00000000E-04 1.15820000E+01
  1 5870 1.35820000E+01 5.00000000E-04 1.15820000E+01
  1 5871 1.35820000E+01 5.00000000E-04 1.15820000E+01
  1 5876 1.35820000E+01 5.00000000E-04 1.15820000E+01
  1 5877 1.35820000E+01 5.00000000E-04 1.15820000E+01
  1 5880 1.35820000E+01 5.00000000E-04 1.15820000E+01
  1 5881 1.35820000E+01 5.00000000E-04 1.15820000E+01
  1 5888 1.35820000E+01 5.00000000E-04 1.15820000E+01
  1 5889 1.35820000E+01 5.00000000E-04 1.15820000E+01
  1 5892 1.35820000E+01 5.00000000E-04 1.15820000E+01
  1 5893 1.35820000E+01 5.00000000E-04 1.15820000E+01
  1 5898 1.35820000E+01 5.00000000E-04 1.15820000E+01
  1 5899 1.35820000E+01 5.00000000E-04 1.15820000E+01
  1 5902 1.35820000E+01 5.00000000E-04 1.15820000E+01
  1 5903 1.35820000E+01 5.00000000E-04 1.15820000E+01
  1 5910 1.35820000E+01 5.00000000E-04 1.15820000E+01
  1 5911 1.35820000E+01 5.00000000E-04 1.15820000E+01
  1 5914 1.35820000E+01 5.00000000E-04 1.15820000E+01
  1 5915 1.35820000E+01 5.00000000E-04 1.15820000E+01
  1 5920 1.35820000E+01 5.00000000E-04 1.15820000E+01
  1 5921 1.35820000E+01 5.00000000E-04 1.15820000E+01
  1 5924 1.35820000E+01 5.00000000E-04 1.15820000E+01
  1 5925 1.35820000E+01 5.00000000E-04 1.15820000E+01
  1 5932 1.35820000E+01 5.00000000E-04 1.15820000E+01
  1 5933 1.35820000E+01 5.00000000E-04 1.15820000E+01
  1 5936 1.35820000E+01 5.00000000E-04 1.15820000E+01
  1 5937 1.35820000E+01 5.00000000E-04 1.15820000E+01
  1 5942 1.35820000E+01 5.00000000E-04 1.15820000E+01
  1 5943 1.35820000E+01 5.00000000E-04 1.15820000E+01
  1 5946 1.35820000E+01 5.00000000E-04 1.15820000E+01
  1 5947 1.35820000E+01 5.00000000E-04 1.15820000E+01
  1 5954 1.35820000E+01 5.00000000E-04 1.15820000E+01
  1 5955 1.35820000E+01 5.00000000E-04 1.15820000E+01
  1 5958 1.35820000E+01 5.00000000E-04 1.15820000E+01
  1 5959 1.35820000E+01 5.00000000E-04 1.15820000E+01
  1 5964 1.35820000E+01 5.00000000E-04 1.15820000E+01
  1 5965 1.35820000E+01 5.00000000E-04 1.15820000E+01
  1 5968 1.35820000E+01 5.00000000E-04 1.15820000E+01
  1 5969 1.35820000E+01 5.00000000E-04 1.15820000E+01
  1 5976 1.35820000E+01 5.00000000E-04 1.15820000E+01
  1 5977 1.35820000E+01 5.00000000E-04 1.15820000E+01
  1 5980 1.35820000E+01 5.00000000E-04 1.15820000E+01
  1 5981 1.35820000E+01 5.00000000E-04 1.15820000E+01
  1 5986 1.35820000E+01 5.00000000E-04 1.15820000E+01
  1 5987 1.35820000E+01 5.00000000E-04 1.15820000E+01
  1 5990 1.35820000E+01 5.00000000E-04 1.15820000E+01
  1 5991 1.35820000E+01 5.00000000E-04 1.15820000E+01
  1 5998 1.35820000E+01 5.00000000E-04 1.15820000E+01
  1 5999 1.35820000E+01 5.00000000E-04 1.15820000E+01
  1 6002 1.35820000E+01 5.00000000E-04 1.15820000E+01
  1 6003 1.35820000E+01 5.00000000E-04 1.15820000E+01
  1 6008 1.35820000E+01 5.00000000E-04 1.15820000E+01
  1 6009 1.35820000E+01 5.00000000E-04 1.15820000E+01
  1 6012 1.35820000E+01 5.00000000E-04 1.15820000E+01
  1 6013 1.35820000E+01 5.00000000E-04 1.15820000E+01
  1 6020 1.35820000E+01 5.00000000E-04 1.15820000E+01
  1 6021 1.35820000E+01 5.00000000E-04 1.15820000E+01
  1 6024 1.35820000E+01 5.00000000E-04 1.15820000E+01
  1 6025 1.35820000E+01 5.00000000E-04 1.15820000E+01
  1 6030 1.35820000E+01 5.00000000E-04 1.15820000E+01
  1 6031 1.35820000E+01 5.00000000E-04 1.15820000E+01
  1 6034 1.35820000E+01 5.00000000E-04 1.15820000E+01
  1 6035 1.35820000E+01 5.00000000E-04 1.15820000E+01
  1 6042 1.35820000E+01 5.00000000E-04 1.15820000E+01
  1 6043 1.35820000E+01 5.00000000E-04 1.15820000E+01
  1 6046 1.35820000E+01 5.00000000E-04 1.15820000E+01
  1 6047 1.35820000E+01 5.00000000E-04 1.15820000E+01
  1 6052 1.35820000E+01 5.00000000E-04 1.15820000E+01
  1 6053 1.35820000E+01 5.00000000E-04 1.15820000E+01
  1 6056 1.35820000E+01 5.00000000E-04 1.15820000E+01
  1 6057 1.35820000E+01 5.00000000E-04 1.15820000E+01
  1 6064 1.35820000E+01 5.00000000E-04 1.15820000E+01
  1 6065 1.35820000E+01 5.00000000E-04 1.15820000E+01
  1 6068 1.35820000E+01 5.00000000E-04 1.15820000E+01
  1 6069 1.35820000E+01 5.00000000E-04 1.15820000E+01
  1 6074 1.35820000E+01 5.00000000E-04 1.15820000E+01
  1 6075 1.35820000E+01 5.00000000E-04 1.15820000E+01
  1 6078 1.35820000E+01 5.00000000E-04 1.15820000E+01
  1 6079 1.35820000E+01 5.00000000E-04 1.15820000E+01
  1 6086 1.35820000E+01 5.00000000E-04 1.15820000E+01
  1 6087 1.35820000E+01 5.00000000E-04 1.15820000E+01
  1 6090 1.35820000E+01 5.00000000E-04 1.15820000E+01
  1 6091 1.35820000E+01 5.00000000E-04 1.15820000E+01
  1 6096 1.35820000E+01 5.00000000E-04 1.15820000E+01
  1 6097 1.35820000E+01 5.00000000E-04 1.15820000E+01
  1 6100 1.35820000E+01 5.00000000E-04 1.15820000E+01
  1 6101 1.35820000E+01 5.00000000E-04 1.15820000E+01
  1 6108 1.35820000E+01 5.00000000E-04 1.15820000E+01
  1 6109 1.35820000E+01 5.00000000E-04 1.15820000E+01
  1 6112 1.35820000E+01 5.00000000E-04 1.15820000E+01
  1 6113 1.35820000E+01 5.00000000E-04 1.15820000E+01
  1 6118 1.35820000E+01 5.00000000E-04 1.15820000E+01
  1 6119 1.35820000E+01 5.00000000E-04 1.15820000E+01
  1 6122 1.35820000E+01 5.00000000E-04 1.15820000E+01
  1 6123 1.35820000E+01 5.00000000E-04 1.15820000E+01
  1 6130 1.35820000E+01 5.00000000E-04 1.15820000E+01
  1 6131 1.35820000E+01 5.00000000E-04 1.15820000E+01
  1 6134 1.35820000E+01 5.00000000E-04 1.15820000E+01
  1 6135 1.35820000E+01 5.00000000E-04 1.15820000E+01
  1 6140 1.35820000E+01 5.00000000E-04 1.15820000E+01
  1 6141 1.35820000E+01 5.00000000E-04 1.15820000E+01
  1 6144 1.35820000E+01 5.00000000E-04 1.15820000E+01
  1 6145 1.35820000E+01 5.00000000E-04 1.15820000E+01
  1 6152 1.35820000E+01 5.00000000E-04 1.15820000E+01
  1 6153 1.35820000E+01 5.00000000E-04 1.15820000E+01
  1 6156 1.35820000E+01 5.00000000E-04 1.15820000E+01
  1 6157 1.35820000E+01 5.00000000E-04 1.15820000E+01
  1 6162 1.35820000E+01 5.00000000E-04 1.15820000E+01
  1 6163 1.35820000E+01 5.00000000E-04 1.15820000E+01
  1 6166 1.35820000E+01 5.00000000E-04 1.15820000E+01
  1 6167 1.35820000E+01 5.00000000E-04 1.15820000E+01
  1 6174 1.35820000E+01 5.00000000E-04 1.15820000E+01
  1 6175 1.35820000E+01 5.00000000E-04 1.15820000E+01
  1 6178 1.35820000E+01 5.00000000E-04 1.15820000E+01
  1 6179 1.35820000E+01 5.00000000E-04 1.15820000E+01
  1 6184 1.35820000E+01 5.00000000E-04 1.15820000E+01
  1 6185 1.35820000E+01 5.00000000E-04 1.15820000E+01
  1 6188 1.35820000E+01 5.00000000E-04 1.15820000E+01
  1 6189 1.35820000E+01 5.00000000E-04 1.15820000E+01
  1 6196 1.35820000E+01 5.00000000E-04 1.15820000E+01
  1 6197 1.35820000E+01 5.00000000E-04 1.15820000E+01
  1 6200 1.35820000E+01 5.00000000E-04 1.15820000E+01
  1 6201 1.35820000E+01 5.00000000E-04 1.15820000E+01
  1 6206 1.35820000E+01 5.00000000E-04 1.15820000E+01
  1 6207 1.35820000E+01 5.00000000E-04 1.15820000E+01
  1 6210 1.35820000E+01 5.00000000E-04 1.15820000E+01
  1 6211 1.35820000E+01 5.00000000E-04 1.15820000E+01
  1 6218 1.35820000E+01 5.00000000E-04 1.15820000E+01
  1 6219 1.35820000E+01 5.00000000E-04 1.15820000E+01
  1 6222 1.35820000E+01 5.00000000E-04 1.15820000E+01
  1 6223 1.35820000E+01 5.00000000E-04 1.15820000E+01
  1 6228 1.35820000E+01 5.00000000E-04 1.15820000E+01
  1 6229 1.35820000E+01 5.00000000E-04 1.15820000E+01
  1 6232 1.35820000E+01 5.00000000E-04 1.15820000E+01
  1 6233 1.35820000E+01 5.00000000E-04 1.15820000E+01
  1 6240 1.35820000E+01 5.00000000E-04 1.15820000E+01
  1 6241 1.35820000E+01 5.00000000E-04 1.15820000E+01
  1 6244 1.35820000E+01 5.00000000E-04 1.15820000E+01
  1 6245 1.35820000E+01 5.00000000E-04 1.15820000E+01
  1 6250 1.35820000E+01 5.00000000E-04 1.15820000E+01
  1 6251 1.35820000E+01 5.00000000E-04 1.15820000E+01
  1 6254 1.35820000E+01 5.00000000E-04 1.15820000E+01
  1 6255 1.35820000E+01 5.00000000E-04 1.15820000E+01
  1 6262 1.35820000E+01 5.00000000E-04 1.15820000E+01
  1 6263 1.35820000E+01 5.00000000E-04 1.15820000E+01
  1 6266 1.35820000E+01 5.00000000E-04 1.15820000E+01
  1 6267 1.35820000E+01 5.00000000E-04 1.15820000E+01
  1 6272 1.35820000E+01 5.00000000E-04 1.15820000E+01
  1 6273 1.35820000E+01 5.00000000E-04 1.15820000E+01
  1 6276 1.35820000E+01 5.00000000E-04 1.15820000E+01
  1 6277 1.35820000E+01 5.00000000E-04 1.15820000E+01
  1 6284 1.35820000E+01 5.00000000E-04 1.15820000E+01
  1 6285 1.35820000E+01 5.00000000E-04 1.15820000E+01
  1 6288 1.35820000E+01 5.00000000E-04 1.15820000E+01
  1 6289 1.35820000E+01 5.00000000E-04 1.15820000E+01
  1 6294 1.35820000E+01 5.00000000E-04 1.15820000E+01
  1 6295 1.35820000E+01 5.00000000E-04 1.15820000E+01
  1 6298 1.35820000E+01 5.00000000E-04 1.15820000E+01
  1 6299 1.35820000E+01 5.00000000E-04 1.15820000E+01
  1 6306 1.35820000E+01 5.00000000E-04 1.15820000E+01
  1 6307 1.35820000E+01 5.00000000E-04 1.15820000E+01
  1 6310 1.35820000E+01 5.00000000E-04 1.15820000E+01
  1 6311 1.35820000E+01 5.00000000E-04 1.15820000E+01
  1 6316 1.35820000E+01 5.00000000E-04 1.15820000E+01
  1 6317 1.35820000E+01 5.00000000E-04 1.15820000E+01
  1 6320 1.35820000E+01 5.00000000E-04 1.15820000E+01
  1 6321 1.35820000E+01 5.00000000E-04 1.15820000E+01
  1 6328 1.35820000E+01 5.00000000E-04 1.15820000E+01
  1 6329 1.35820000E+01 5.00000000E-04 1.15820000E+01
  1 6332 1.35820000E+01 5.00000000E-04 1.15820000E+01
  1 6333 1.35820000E+01 5.00000000E-04 1.15820000E+01
  1 6338 1.35820000E+01 5.00000000E-04 1.15820000E+01
  1 6339 1.35820000E+01 5.00000000E-04 1.15820000E+01
  1 6342 1.35820000E+01 5.00000000E-04 1.15820000E+01
  1 6343 1.35820000E+01 5.00000000E-04 1.15820000E+01
  1 6350 1.35820000E+01 5.00000000E-04 1.15820000E+01
  1 6351 1.35820000E+01 5.00000000E-04 1.15820000E+01
  1 6354 1.35820000E+01 5.00000000E-04 1.15820000E+01
  1 6355 1.35820000E+01 5.00000000E-04 1.15820000E+01
  1 6360 1.35820000E+01 5.00000000E-04 1.15820000E+01
  1 6361 1.35820000E+01 5.00000000E-04 1.15820000E+01
  1 6364 1.35820000E+01 5.00000000E-04 1.15820000E+01
  1 6365 1.35820000E+01 5.00000000E-04 1.15820000E+01
  1 6372 1.35820000E+01 5.00000000E-04 1.15820000E+01
  1 6373 1.35820000E+01 5.00000000E-04 1.15820000E+01
  1 6376 1.35820000E+01 5.00000000E-04 1.15820000E+01
  1 6377 1.35820000E+01 5.00000000E-04 1.15820000E+01
  1 6382 1.35820000E+01 5.00000000E-04 1.15820000E+01
  1 6383 1.35820000E+01 5.00000000E-04 1.15820000E+01
  1 6386 1.35820000E+01 5.00000000E-04 1.15820000E+01
  1 6387 1.35820000E+01 5.00000000E-04 1.15820000E+01
  1 6394 1.35820000E+01 5.00000000E-04 1.15820000E+01
  1 6395 1.35820000E+01 5.00000000E-04 1.15820000E+01
  1 6398 1.35820000E+01 5.00000000E-04 1.15820000E+01
  1 6399 1.35820000E+01 5.00000000E-04 1.15820000E+01
  1 6404 1.35820000E+01 5.00000000E-04 1.15820000E+01
  1 6405 1.35820000E+01 5.00000000E-04 1.15820000E+01
  1 6408 1.35820000E+01 5.00000000E-04 1.15820000E+01
  1 6409 1.35820000E+01 5.00000000E-04 1.15820000E+01
  1 6416 1.35820000E+01 5.00000000E-04 1.15820000E+01
  1 6417 1.35820000E+01 5.00000000E-04 1.15820000E+01
  1 6420 1.35820000E+01 5.00000000E-04 1.15820000E+01
  1 6421 1.35820000E+01 5.00000000E-04 1.15820000E+01
  1 6426 1.35820000E+01 5.00000000E-04 1.15820000E+01
  1 6427 1.35820000E+01 5.00000000E-04 1.15820000E+01
  1 6430 1.35820000E+01 5.00000000E-04 1.15820000E+01
  1 6431 1.35820000E+01 5.00000000E-04 1.15820000E+01
  1 6438 1.35820000E+01 5.00000000E-04 1.15820000E+01
  1 6439 1.35820000E+01 5.00000000E-04 1.15820000E+01
  1 6442 1.35820000E+01 5.00000000E-04 1.15820000E+01
  1 6443 1.35820000E+01 5.00000000E-04 1.15820000E+01
  1 6448 1.35820000E+01 5.00000000E-04 1.15820000E+01
  1 6449 1.35820000E+01 5.00000000E-04 1.15820000E+01
  1 6452 1.35820000E+01 5.00000000E-04 1.15820000E+01
  1 6453 1.35820000E+01 5.00000000E-04 1.15820000E+01
  1 6460 1.35820000E+01 5.00000000E-04 1.15820000E+01
  1 6461 1.35820000E+01 5.00000000E-04 1.15820000E+01
  1 6464 1.35820000E+01 5.00000000E-04 1.15820000E+01
  1 6465 1.35820000E+01 5.00000000E-04 1.15820000E+01
  1 6470 1.35820000E+01 5.00000000E-04 1.15820000E+01
  1 6471 1.35820000E+01 5.00000000E-04 1.15820000E+01
  1 6474 1.35820000E+01 5.00000000E-04 1.15820000E+01
  1 6475 1.35820000E+01 5.00000000E-04 1.15820000E+01
  1 6482 1.35820000E+01 5.00000000E-04 1.15820000E+01
  1 6483 1.35820000E+01 5.00000000E-04 1.15820000E+01
  1 6486 1.35820000E+01 5.00000000E-04 1.15820000E+01
  1 6487 1.35820000E+01 5.00000000E-04 1.15820000E+01
  1 6492 1.35820000E+01 5.00000000E-04 1.15820000E+01
  1 6493 1.35820000E+01 5.00000000E-04 1.15820000E+01
  1 6496 1.35820000E+01 5.00000000E-04 1.15820000E+01
  1 6497 1.35820000E+01 5.00000000E-04 1.15820000E+01
  1 6504 1.35820000E+01 5.00000000E-04 1.15820000E+01
  1 6505 1.35820000E+01 5.00000000E-04 1.15820000E+01
  1 6508 1.35820000E+01 5.00000000E-04 1.15820000E+01
  1 6509 1.35820000E+01 5.00000000E-04 1.15820000E+01
  1 6514 1.35820000E+01 5.00000000E-04 1.15820000E+01
  1 6515 1.35820000E+01 5.00000000E-04 1.15820000E+01
  1 6518 1.35820000E+01 5.00000000E-04 1.15820000E+01
  1 6519 1.35820000E+01 5.00000000E-04 1.15820000E+01
  1 6526 1.35820000E+01 5.00000000E-04 1.15820000E+01
  1 6527 1.35820000E+01 5.00000000E-04 1.15820000E+01
  1 6530 1.35820000E+01 5.00000000E-04 1.15820000E+01
  1 6531 1.35820000E+01 5.00000000E-04 1.15820000E+01
  1 6536 1.35820000E+01 5.00000000E-04 1.15820000E+01
  1 6537 1.35820000E+01 5.00000000E-04 1.15820000E+01
  1 6540 1.35820000E+01 5.00000000E-04 1.15820000E+01
  1 6541 1.35820000E+01 5.00000000E-04 1.15820000E+01
  1 6548 1.35820000E+01 5.00000000E-04 1.15820000E+01
  1 6549 1.35820000E+01 5.00000000E-04 1.15820000E+01
  1 6552 1.35820000E+01 5.00000000E-04 1.15820000E+01
  1 6553 1.35820000E+01 5.00000000E-04 1.15820000E+01
  1 6558 1.35820000E+01 5.00000000E-04 1.15820000E+01
  1 6559 1.35820000E+01 5.00000000E-04 1.15820000E+01
  1 6562 1.35820000E+01 5.00000000E-04 1.15820000E+01
  1 6563 1.35820000E+01 5.00000000E-04 1.15820000E+01
  1 6570 1.35820000E+01 5.00000000E-04 1.15820000E+01
  1 6571 1.35820000E+01 5.00000000E-04 1.15820000E+01
  1 6574 1.35820000E+01 5.00000000E-04 1.15820000E+01
  1 6575 1.35820000E+01 5.00000000E-04 1.15820000E+01
  1 6580 1.35820000E+01 5.00000000E-04 1.15820000E+01
  1 6581 1.35820000E+01 5.00000000E-04 1.15820000E+01
  1 6584 1.35820000E+01 5.00000000E-04 1.15820000E+01
  1 6585 1.35820000E+01 5.00000000E-04 1.15820000E+01
  1 6592 1.35820000E+01 5.00000000E-04 1.15820000E+01
  1 6593 1.35820000E+01 5.00000000E-04 1.15820000E+01
  1 6596 1.35820000E+01 5.00000000E-04 1.15820000E+01
  1 6597 1.35820000E+01 5.00000000E-04 1.15820000E+01
  1 6602 1.35820000E+01 5.00000000E-04 1.15820000E+01
  1 6603 1.35820000E+01 5.00000000E-04 1.15820000E+01
  1 6606 1.35820000E+01 5.00000000E-04 1.15820000E+01
  1 6607 1.35820000E+01 5.00000000E-04 1.15820000E+01
  1 6614 1.35820000E+01 5.00000000E-04 1.15820000E+01
  1 6615 1.35820000E+01 5.00000000E-04 1.15820000E+01
  1 6618 1.35820000E+01 5.00000000E-04 1.15820000E+01
  1 6619 1.35820000E+01 5.00000000E-04 1.15820000E+01
  1 6624 1.35820000E+01 5.00000000E-04 1.15820000E+01
  1 6625 1.35820000E+01 5.00000000E-04 1.15820000E+01
  1 6628 1.35820000E+01 5.00000000E-04 1.15820000E+01
  1 6629 1.35820000E+01 5.00000000E-04 1.15820000E+01
  1 6636 1.35820000E+01 5.00000000E-04 1.15820000E+01
  1 6637 1.35820000E+01 5.00000000E-04 1.15820000E+01
  1 6640 1.35820000E+01 5.00000000E-04 1.15820000E+01
  1 6641 1.35820000E+01 5.00000000E-04 1.15820000E+01
  1 6646 1.35820000E+01 5.00000000E-04 1.15820000E+01
  1 6647 1.35820000E+01 5.00000000E-04 1.15820000E+01
  1 6650 1.35820000E+01 5.00000000E-04 1.15820000E+01
  1 6651 1.35820000E+01 5.00000000E-04 1.15820000E+01
  1 6658 1.35820000E+01 5.00000000E-04 1.15820000E+01
  1 6659 1.35820000E+01 5.00000000E-04 1.15820000E+01
  1 6662 1.35820000E+01 5.00000000E-04 1.15820000E+01
  1 6663 1.35820000E+01 5.00000000E-04 1.15820000E+01
  1 6668 1.35820000E+01 5.00000000E-04 1.15820000E+01
  1 6669 1.35820000E+01 5.00000000E-04 1.15820000E+01
  1 6672 1.35820000E+01 5.00000000E-04 1.15820000E+01
  1 6673 1.35820000E+01 5.00000000E-04 1.15820000E+01