# File generated by Flopy version 3.7.0 on 06/04/2024 at 14:51:32.
BEGIN options
  PRINT_OPTION  summary
  COMPLEXITY  complex
END options

BEGIN linear
  LINEAR_ACCELERATION  bicgstab
END linear

