# File generated by Flopy version 3.7.0 on 06/07/2024 at 13:49:45.
BEGIN options
END options

BEGIN dimensions
  MAXBOUND  7355
END dimensions

BEGIN period  1
  1 1 1.65150252E-08
  1 2 1.65644815E-08
  1 3 1.42829296E-08
  1 4 1.10373132E-08
  1 5 6.50071480E-09
  1 6 6.05207863E-09
  1 7 6.37291382E-09
  1 8 7.96086959E-09
  1 9 8.04262823E-09
  1 10 1.08381851E-08
  1 11 1.29296932E-08
  1 12 1.37060256E-08
  1 13 1.57493706E-08
  1 14 1.44468420E-08
  1 15 1.43077168E-08
  1 16 1.25587990E-08
  1 17 1.87537503E-08
  1 18 2.82624778E-08
  1 19 2.82404285E-08
  1 20 3.18399287E-08
  1 21 3.71504191E-08
  1 22 3.52651308E-08
  1 23 3.05946073E-08
  1 24 3.13800431E-08
  1 25 2.48439215E-08
  1 26 2.17142399E-08
  1 27 2.40767589E-08
  1 28 2.82091045E-08
  1 29 3.19704793E-08
  1 30 2.97461097E-08
  1 31 2.32166611E-08
  1 32 1.50696902E-08
  1 33 1.28951115E-08
  1 34 1.38686511E-08
  1 35 1.64391089E-08
  1 36 1.56712528E-08
  1 37 1.11986668E-08
  1 38 9.80656038E-09
  1 39 8.48508436E-09
  1 40 7.73497481E-09
  1 41 7.83098948E-09
  1 42 9.96610851E-09
  1 43 1.55268565E-08
  1 44 2.42300911E-08
  1 45 2.74256434E-08
  1 46 2.41303442E-08
  1 47 1.64551105E-08
  1 48 1.27576730E-08
  1 49 1.40466492E-08
  1 50 1.64638353E-08
  1 51 2.03549286E-08
  1 52 2.11964653E-08
  1 53 2.47841542E-08
  1 54 1.85518960E-08
  1 55 1.29346612E-08
  1 56 1.11167721E-08
  1 57 1.15407064E-08
  1 58 1.18494561E-08
  1 59 1.18958448E-08
  1 60 1.20129190E-08
  1 61 1.31083829E-08
  1 62 1.48214444E-08
  1 63 1.45018965E-08
  1 64 1.11244698E-08
  1 65 8.93653723E-09
  1 66 1.05332182E-08
  1 67 1.23578930E-08
  1 68 1.56034464E-08
  1 69 1.91416438E-08
  1 70 2.02924317E-08
  1 71 2.24821465E-08
  1 72 2.02549043E-08
  1 73 1.86660192E-08
  1 74 1.54885840E-08
  1 75 1.26701734E-08
  1 76 1.23976266E-08
  1 77 9.90273588E-09
  1 78 1.08687701E-08
  1 79 1.51954851E-08
  1 80 2.00542279E-08
  1 81 2.21621837E-08
  1 82 2.81814066E-08
  1 83 2.98876301E-08
  1 84 2.50674844E-08
  1 85 2.09555383E-08
  1 86 1.79779510E-08
  1 87 1.47663296E-08
  1 88 1.37016415E-08
  1 89 8.91614803E-09
  1 90 9.48509089E-09
  1 91 1.18292107E-08
  1 92 1.30878376E-08
  1 93 1.33089718E-08
  1 94 1.26138209E-08
  1 95 1.43624580E-08
  1 96 1.68583471E-08
  1 97 1.20121515E-08
  1 98 1.07747986E-08
  1 99 9.62318940E-09
  1 100 7.71558511E-09
  1 101 1.48555015E-08
  1 102 1.47726906E-08
  1 103 1.33448914E-08
  1 104 1.20434951E-08
  1 105 7.85303162E-09
  1 106 6.37206819E-09
  1 107 5.91121498E-09
  1 108 7.10069165E-09
  1 109 7.85094625E-09
  1 110 9.03952980E-09
  1 111 1.07949899E-08
  1 112 1.15309002E-08
  1 113 1.53716200E-08
  1 114 1.63797040E-08
  1 115 1.54142451E-08
  1 116 1.31855382E-08
  1 117 1.72526722E-08
  1 118 2.58762725E-08
  1 119 2.67247455E-08
  1 120 2.66060101E-08
  1 121 3.07431857E-08
  1 122 3.65049995E-08
  1 123 2.99844697E-08
  1 124 3.14567477E-08
  1 125 3.22742983E-08
  1 126 2.34686727E-08
  1 127 2.29674398E-08
  1 128 2.63452831E-08
  1 129 3.04263574E-08
  1 130 2.91335358E-08
  1 131 2.80304826E-08
  1 132 1.69898795E-08
  1 133 1.43678659E-08
  1 134 1.53724319E-08
  1 135 1.63011468E-08
  1 136 1.83048640E-08
  1 137 1.26616478E-08
  1 138 1.07622485E-08
  1 139 9.37821455E-09
  1 140 7.85513543E-09
  1 141 7.81132163E-09
  1 142 9.22841498E-09
  1 143 1.29024982E-08
  1 144 2.14483420E-08
  1 145 2.68423511E-08
  1 146 2.67110326E-08
  1 147 2.13903751E-08
  1 148 1.45359685E-08
  1 149 1.40744738E-08
  1 150 1.76897592E-08
  1 151 2.10736864E-08
  1 152 2.23166296E-08
  1 153 2.56714498E-08
  1 154 2.10136526E-08
  1 155 1.50646336E-08
  1 156 1.26264237E-08
  1 157 1.10315866E-08
  1 158 1.20528912E-08
  1 159 1.06727991E-08
  1 160 1.24473441E-08
  1 161 1.30652614E-08
  1 162 1.30276569E-08
  1 163 1.49790111E-08
  1 164 1.29096758E-08
  1 165 9.50071666E-09
  1 166 9.68165485E-09
  1 167 1.05960584E-08
  1 168 1.26529341E-08
  1 169 1.83109728E-08
  1 170 2.12151737E-08
  1 171 2.21435077E-08
  1 172 2.20157507E-08
  1 173 1.97497063E-08
  1 174 1.54270695E-08
  1 175 1.24980860E-08
  1 176 1.16980070E-08
  1 177 1.08735178E-08
  1 178 9.83237702E-09
  1 179 1.35092567E-08
  1 180 1.84814663E-08
  1 181 2.05634242E-08
  1 182 2.41946140E-08
  1 183 3.11017996E-08
  1 184 2.65035984E-08
  1 185 2.34845862E-08
  1 186 1.92353609E-08
  1 187 1.48553742E-08
  1 188 1.40188827E-08
  1 189 9.72891534E-09
  1 190 8.77256847E-09
  1 191 1.02360321E-08
  1 192 1.18650110E-08
  1 193 1.32377851E-08
  1 194 1.39405623E-08
  1 195 1.38796187E-08
  1 196 1.49867312E-08
  1 197 1.30659137E-08
  1 198 1.00386848E-08
  1 199 1.08868426E-08
  1 200 8.53907001E-09
  1 201 1.41632950E-08
  1 202 1.42546486E-08
  1 203 1.42047747E-08
  1 204 1.26555100E-08
  1 205 1.10718807E-08
  1 206 7.51968082E-09
  1 207 7.20544708E-09
  1 208 7.39622881E-09
  1 209 8.34736738E-09
  1 210 8.11845762E-09
  1 211 1.00436694E-08
  1 212 1.08227342E-08
  1 213 1.30556552E-08
  1 214 1.71851102E-08
  1 215 1.79796522E-08
  1 216 1.54211530E-08
  1 217 1.59763898E-08
  1 218 2.19767605E-08
  1 219 2.38992693E-08
  1 220 2.04493175E-08
  1 221 2.41855310E-08
  1 222 3.04645040E-08
  1 223 2.85960014E-08
  1 224 2.96619269E-08
  1 225 3.26307815E-08
  1 226 2.63357753E-08
  1 227 2.30692253E-08
  1 228 2.23842668E-08
  1 229 2.59217497E-08
  1 230 3.12513382E-08
  1 231 2.92367444E-08
  1 232 2.06880955E-08
  1 233 1.48892951E-08
  1 234 1.78220223E-08
  1 235 1.69150952E-08
  1 236 1.89980187E-08
  1 237 1.62440595E-08
  1 238 1.29262642E-08
  1 239 1.03427294E-08
  1 240 8.88377121E-09
  1 241 8.20168798E-09
  1 242 8.87366593E-09
  1 243 1.19535136E-08
  1 244 1.74834560E-08
  1 245 2.60869964E-08
  1 246 2.78543950E-08
  1 247 2.66654807E-08
  1 248 1.65333430E-08
  1 249 1.41837247E-08
  1 250 1.70154132E-08
  1 251 2.16988981E-08
  1 252 2.30521785E-08
  1 253 2.71151693E-08
  1 254 2.36681543E-08
  1 255 1.64957479E-08
  1 256 1.46574955E-08
  1 257 1.18189443E-08
  1 258 1.23006924E-08
  1 259 1.08942803E-08
  1 260 1.20721251E-08
  1 261 1.37284183E-08
  1 262 1.24713326E-08
  1 263 1.48009707E-08
  1 264 1.54101400E-08
  1 265 1.25980988E-08
  1 266 9.63384003E-09
  1 267 1.08919718E-08
  1 268 1.03376823E-08
  1 269 1.62245395E-08
  1 270 2.25728448E-08
  1 271 2.14342850E-08
  1 272 2.57186020E-08
  1 273 2.05413145E-08
  1 274 1.63309908E-08
  1 275 1.33025345E-08
  1 276 1.02088803E-08
  1 277 1.07283412E-08
  1 278 9.60464884E-09
  1 279 1.11487951E-08
  1 280 1.42424264E-08
  1 281 1.87981250E-08
  1 282 2.11542119E-08
  1 283 2.83377546E-08
  1 284 2.82632496E-08
  1 285 2.70183106E-08
  1 286 2.32529115E-08
  1 287 1.96544131E-08
  1 288 1.47806558E-08
  1 289 1.28376241E-08
  1 290 1.01938450E-08
  1 291 1.02613316E-08
  1 292 1.16624635E-08
  1 293 1.33253528E-08
  1 294 1.52204576E-08
  1 295 1.42881627E-08
  1 296 1.45652358E-08
  1 297 1.36188060E-08
  1 298 1.06155889E-08
  1 299 1.05741887E-08
  1 300 9.26242594E-09
  1 301 1.27493457E-08
  1 302 1.47263103E-08
  1 303 1.43126077E-08
  1 304 1.40104507E-08
  1 305 1.32709254E-08
  1 306 9.51908243E-09
  1 307 8.36230075E-09
  1 308 8.23642194E-09
  1 309 8.48031397E-09
  1 310 8.44660247E-09
  1 311 9.29655965E-09
  1 312 1.12000121E-08
  1 313 1.27744839E-08
  1 314 1.71416485E-08
  1 315 2.07530327E-08
  1 316 1.97873975E-08
  1 317 1.67767322E-08
  1 318 1.92533229E-08
  1 319 2.29008271E-08
  1 320 2.00191806E-08
  1 321 2.05400190E-08
  1 322 2.43535644E-08
  1 323 2.73026051E-08
  1 324 2.49050323E-08
  1 325 2.79880100E-08
  1 326 2.77229367E-08
  1 327 2.22951016E-08
  1 328 2.14546345E-08
  1 329 2.43938426E-08
  1 330 3.05660283E-08
  1 331 2.95179572E-08
  1 332 2.50113170E-08
  1 333 1.58513275E-08
  1 334 1.76518659E-08
  1 335 1.66862221E-08
  1 336 1.84018546E-08
  1 337 1.70507414E-08
  1 338 1.51832326E-08
  1 339 1.10266411E-08
  1 340 9.72438509E-09
  1 341 7.58857839E-09
  1 342 8.21656056E-09
  1 343 1.13521295E-08
  1 344 1.43720208E-08
  1 345 2.35433717E-08
  1 346 2.68155798E-08
  1 347 2.71821598E-08
  1 348 1.89815585E-08
  1 349 1.67562788E-08
  1 350 1.81285663E-08
  1 351 2.12521824E-08
  1 352 2.62980027E-08
  1 353 2.69211000E-08
  1 354 2.42618252E-08
  1 355 1.80393502E-08
  1 356 1.52948883E-08
  1 357 1.44184102E-08
  1 358 1.19104717E-08
  1 359 1.09921293E-08
  1 360 1.25412542E-08
  1 361 1.35939316E-08
  1 362 1.27307330E-08
  1 363 1.35612064E-08
  1 364 1.61108256E-08
  1 365 1.55745566E-08
  1 366 1.10429967E-08
  1 367 1.15106914E-08
  1 368 9.83547871E-09
  1 369 1.23518815E-08
  1 370 1.90192938E-08
  1 371 2.25040969E-08
  1 372 2.47842481E-08
  1 373 2.17976168E-08
  1 374 1.71751914E-08
  1 375 1.44747909E-08
  1 376 1.05294229E-08
  1 377 9.16266646E-09
  1 378 9.99196995E-09
  1 379 9.88715065E-09
  1 380 1.19556987E-08
  1 381 1.67171501E-08
  1 382 2.01929083E-08
  1 383 2.32910618E-08
  1 384 2.64078780E-08
  1 385 2.66998539E-08
  1 386 2.66853047E-08
  1 387 2.48237408E-08
  1 388 1.68196290E-08
  1 389 1.45486705E-08
  1 390 1.05098514E-08
  1 391 9.87013793E-09
  1 392 1.08632784E-08
  1 393 1.29552070E-08
  1 394 1.44629907E-08
  1 395 1.55824255E-08
  1 396 1.46715840E-08
  1 397 1.47115395E-08
  1 398 1.27496857E-08
  1 399 1.11749556E-08
  1 400 1.01935245E-08
  1 401 1.12523828E-08
  1 402 1.22684018E-08
  1 403 1.37597180E-08
  1 404 1.47706577E-08
  1 405 1.44670979E-08
  1 406 1.17441716E-08
  1 407 9.75779629E-09
  1 408 9.12035575E-09
  1 409 9.28401256E-09
  1 410 8.94101705E-09
  1 411 8.13283406E-09
  1 412 1.14258666E-08
  1 413 1.19674535E-08
  1 414 1.57862838E-08
  1 415 2.20672195E-08
  1 416 2.22929697E-08
  1 417 1.85342516E-08
  1 418 1.77897102E-08
  1 419 2.08212848E-08
  1 420 2.14430927E-08
  1 421 2.00923529E-08
  1 422 2.01296647E-08
  1 423 2.47866393E-08
  1 424 2.41462384E-08
  1 425 2.43699297E-08
  1 426 2.59081972E-08
  1 427 2.45741917E-08
  1 428 2.31858034E-08
  1 429 2.40483154E-08
  1 430 2.63987460E-08
  1 431 3.10875839E-08
  1 432 2.98598341E-08
  1 433 1.93093366E-08
  1 434 1.75257795E-08
  1 435 1.82469911E-08
  1 436 1.83751815E-08
  1 437 1.86293179E-08
  1 438 1.78725787E-08
  1 439 1.28620646E-08
  1 440 1.01596982E-08
  1 441 8.28658812E-09
  1 442 8.89579692E-09
  1 443 1.03915863E-08
  1 444 1.41096697E-08
  1 445 1.99343226E-08
  1 446 2.45773961E-08
  1 447 2.67932364E-08
  1 448 2.10683877E-08
  1 449 1.82811420E-08
  1 450 2.07707584E-08
  1 451 1.96324587E-08
  1 452 2.79455785E-08
  1 453 2.64884893E-08
  1 454 2.48619619E-08
  1 455 1.84599576E-08
  1 456 1.58994717E-08
  1 457 1.50397588E-08
  1 458 1.17210436E-08
  1 459 1.03718833E-08
  1 460 1.13593139E-08
  1 461 1.29801098E-08
  1 462 1.17701344E-08
  1 463 1.21057600E-08
  1 464 1.41512166E-08
  1 465 1.67609755E-08
  1 466 1.39200524E-08
  1 467 1.05966233E-08
  1 468 1.05179632E-08
  1 469 1.00936660E-08
  1 470 1.59111693E-08
  1 471 2.41892753E-08
  1 472 2.26458134E-08
  1 473 2.25704608E-08
  1 474 1.83554014E-08
  1 475 1.61237178E-08
  1 476 1.29999099E-08
  1 477 9.19408602E-09
  1 478 9.28518009E-09
  1 479 1.00867380E-08
  1 480 1.24079907E-08
  1 481 1.44058171E-08
  1 482 1.99824862E-08
  1 483 1.96018766E-08
  1 484 2.35257648E-08
  1 485 2.60850743E-08
  1 486 2.80719348E-08
  1 487 3.14757834E-08
  1 488 2.22716259E-08
  1 489 1.60414919E-08
  1 490 1.34038546E-08
  1 491 1.15304598E-08
  1 492 1.22723538E-08
  1 493 1.36125770E-08
  1 494 1.49807156E-08
  1 495 1.64891060E-08
  1 496 1.55037156E-08
  1 497 1.42098264E-08
  1 498 1.33637017E-08
  1 499 1.26318022E-08
  1 500 1.21842380E-08
  1 501 1.08150730E-08
  1 502 9.94435578E-09
  1 503 1.27640763E-08
  1 504 1.50545410E-08
  1 505 1.42305508E-08
  1 506 1.49597798E-08
  1 507 1.14058090E-08
  1 508 9.84416982E-09
  1 509 9.76836119E-09
  1 510 8.83181020E-09
  1 511 8.29809687E-09
  1 512 1.01776665E-08
  1 513 1.37745578E-08
  1 514 1.72651648E-08
  1 515 2.02994982E-08
  1 516 2.20174340E-08
  1 517 2.19891517E-08
  1 518 1.93779581E-08
  1 519 1.91739725E-08
  1 520 2.14135438E-08
  1 521 1.98383124E-08
  1 522 1.95724668E-08
  1 523 2.16567788E-08
  1 524 2.56920976E-08
  1 525 2.27117793E-08
  1 526 2.13667621E-08
  1 527 2.45516081E-08
  1 528 2.39236242E-08
  1 529 2.32833771E-08
  1 530 2.56615723E-08
  1 531 2.71762115E-08
  1 532 2.98915234E-08
  1 533 2.54443343E-08
  1 534 2.00547310E-08
  1 535 1.99890987E-08
  1 536 1.80866659E-08
  1 537 1.94658010E-08
  1 538 1.65991661E-08
  1 539 1.36250538E-08
  1 540 1.04446586E-08
  1 541 8.22256734E-09
  1 542 8.97283627E-09
  1 543 1.02296727E-08
  1 544 1.33086940E-08
  1 545 1.68992344E-08
  1 546 2.11780655E-08
  1 547 2.61137502E-08
  1 548 2.10749888E-08
  1 549 1.91020660E-08
  1 550 2.00661033E-08
  1 551 2.00553980E-08
  1 552 2.51384969E-08
  1 553 2.77607633E-08
  1 554 2.78349669E-08
  1 555 1.96335278E-08
  1 556 1.64083113E-08
  1 557 1.50552538E-08
  1 558 1.35110584E-08
  1 559 1.03598163E-08
  1 560 1.07112773E-08
  1 561 1.31956246E-08
  1 562 1.22534025E-08
  1 563 1.22339384E-08
  1 564 1.42429460E-08
  1 565 1.65129444E-08
  1 566 1.65523233E-08
  1 567 1.15328863E-08
  1 568 1.10866469E-08
  1 569 8.82492029E-09
  1 570 1.36431959E-08
  1 571 1.99028986E-08
  1 572 2.06148686E-08
  1 573 2.36569899E-08
  1 574 2.01582308E-08
  1 575 1.64982344E-08
  1 576 1.43139915E-08
  1 577 9.68406848E-09
  1 578 8.55764803E-09
  1 579 9.53393986E-09
  1 580 1.21319016E-08
  1 581 1.35047871E-08
  1 582 1.74155990E-08
  1 583 1.78514499E-08
  1 584 2.12680820E-08
  1 585 2.46935832E-08
  1 586 2.64801460E-08
  1 587 3.11326254E-08
  1 588 2.66444874E-08
  1 589 1.89138081E-08
  1 590 1.48106957E-08
  1 591 1.26527534E-08
  1 592 1.20473404E-08
  1 593 1.32324479E-08
  1 594 1.59512204E-08
  1 595 1.62840428E-08
  1 596 1.61513238E-08
  1 597 1.40154595E-08
  1 598 1.41127521E-08
  1 599 1.35126082E-08
  1 600 1.41043114E-08
  1 601 1.14344952E-08
  1 602 1.00340915E-08
  1 603 1.10956535E-08
  1 604 1.50592227E-08
  1 605 1.58808673E-08
  1 606 1.73430860E-08
  1 607 1.40140092E-08
  1 608 1.24184363E-08
  1 609 1.04734144E-08
  1 610 9.46164714E-09
  1 611 8.82979636E-09
  1 612 8.65520580E-09
  1 613 1.32317306E-08
  1 614 1.82170214E-08
  1 615 1.94256899E-08
  1 616 2.25011780E-08
  1 617 2.41307861E-08
  1 618 2.30371346E-08
  1 619 2.11997861E-08
  1 620 2.33335814E-08
  1 621 1.96059331E-08
  1 622 1.81314828E-08
  1 623 1.91212967E-08
  1 624 2.32227183E-08
  1 625 2.39889648E-08
  1 626 1.76756585E-08
  1 627 2.09044969E-08
  1 628 2.21519304E-08
  1 629 2.24405594E-08
  1 630 2.31933339E-08
  1 631 2.40540221E-08
  1 632 2.59419674E-08
  1 633 2.86576363E-08
  1 634 2.46734370E-08
  1 635 2.10579402E-08
  1 636 1.84340803E-08
  1 637 1.88086424E-08
  1 638 1.51284680E-08
  1 639 1.42584836E-08
  1 640 1.16029762E-08
  1 641 9.00803351E-09
  1 642 8.89337739E-09
  1 643 1.20686047E-08
  1 644 1.23397486E-08
  1 645 1.55461439E-08
  1 646 2.08345804E-08
  1 647 2.42110910E-08
  1 648 2.42762287E-08
  1 649 1.95549213E-08
  1 650 2.09055935E-08
  1 651 2.06593893E-08
  1 652 2.24249609E-08
  1 653 2.73258563E-08
  1 654 2.87176274E-08
  1 655 2.33202951E-08
  1 656 1.70126346E-08
  1 657 1.38913128E-08
  1 658 1.34658828E-08
  1 659 1.00052828E-08
  1 660 9.00518216E-09
  1 661 1.10847502E-08
  1 662 1.13275337E-08
  1 663 1.03114692E-08
  1 664 1.24803281E-08
  1 665 1.49137477E-08
  1 666 1.70693822E-08
  1 667 1.41228423E-08
  1 668 1.15585581E-08
  1 669 8.91079505E-09
  1 670 1.28323763E-08
  1 671 1.75406613E-08
  1 672 2.04551549E-08
  1 673 2.26935279E-08
  1 674 2.48294386E-08
  1 675 1.96400968E-08
  1 676 1.72151928E-08
  1 677 1.16215347E-08
  1 678 8.66428004E-09
  1 679 8.94028756E-09
  1 680 1.13096406E-08
  1 681 1.49539828E-08
  1 682 1.70447154E-08
  1 683 1.57294368E-08
  1 684 1.77206245E-08
  1 685 2.03502653E-08
  1 686 2.45403211E-08
  1 687 2.80467213E-08
  1 688 2.83386641E-08
  1 689 2.20203585E-08
  1 690 1.84217792E-08
  1 691 1.34899390E-08
  1 692 1.27035001E-08
  1 693 1.29670567E-08
  1 694 1.56345947E-08
  1 695 1.66373134E-08
  1 696 1.60232482E-08
  1 697 1.56580281E-08
  1 698 1.48583403E-08
  1 699 1.40809316E-08
  1 700 1.50419514E-08
  1 701 1.01202619E-08
  1 702 1.04421579E-08
  1 703 8.61217843E-09
  1 704 1.21931821E-08
  1 705 1.56715255E-08
  1 706 1.69697824E-08
  1 707 1.77823402E-08
  1 708 1.45111964E-08
  1 709 1.17303372E-08
  1 710 1.06718549E-08
  1 711 9.51466530E-09
  1 712 8.51109528E-09
  1 713 1.19329554E-08
  1 714 1.72387907E-08
  1 715 1.90278945E-08
  1 716 2.13346585E-08
  1 717 2.36908736E-08
  1 718 2.47395155E-08
  1 719 2.33477698E-08
  1 720 2.15950780E-08
  1 721 1.94398035E-08
  1 722 1.72392161E-08
  1 723 1.69625759E-08
  1 724 2.00995605E-08
  1 725 2.41132109E-08
  1 726 1.89211878E-08
  1 727 1.78106732E-08
  1 728 2.00090662E-08
  1 729 2.26642169E-08
  1 730 2.32160010E-08
  1 731 2.29748210E-08
  1 732 2.41060014E-08
  1 733 2.76858231E-08
  1 734 2.94909764E-08
  1 735 2.23000641E-08
  1 736 2.10503902E-08
  1 737 2.11473885E-08
  1 738 1.60413639E-08
  1 739 1.52710178E-08
  1 740 1.20976544E-08
  1 741 1.11724046E-08
  1 742 8.92614583E-09
  1 743 1.25678744E-08
  1 744 1.37766849E-08
  1 745 1.47058408E-08
  1 746 1.85832258E-08
  1 747 2.20763195E-08
  1 748 2.59032624E-08
  1 749 2.09329282E-08
  1 750 2.01091160E-08
  1 751 2.18471370E-08
  1 752 2.34548983E-08
  1 753 2.49601709E-08
  1 754 2.74489684E-08
  1 755 2.51309358E-08
  1 756 1.89079328E-08
  1 757 1.39499883E-08
  1 758 1.36851022E-08
  1 759 1.13568903E-08
  1 760 7.70015259E-09
  1 761 8.93580504E-09
  1 762 1.01938155E-08
  1 763 9.57702061E-09
  1 764 1.13517317E-08
  1 765 1.36116903E-08
  1 766 1.64946492E-08
  1 767 1.47604576E-08
  1 768 1.23617088E-08
  1 769 1.03242441E-08
  1 770 1.10124427E-08
  1 771 1.62662701E-08
  1 772 1.73422145E-08
  1 773 2.05422751E-08
  1 774 2.53311195E-08
  1 775 2.22899482E-08
  1 776 1.77768049E-08
  1 777 1.17924073E-08
  1 778 9.72255004E-09
  1 779 8.88353801E-09
  1 780 1.13363879E-08
  1 781 1.48675228E-08
  1 782 1.72353291E-08
  1 783 1.51925156E-08
  1 784 1.55647304E-08
  1 785 1.89334053E-08
  1 786 2.18711307E-08
  1 787 2.59162606E-08
  1 788 2.79115075E-08
  1 789 2.35490139E-08
  1 790 2.30384952E-08
  1 791 1.50010549E-08
  1 792 1.31836043E-08
  1 793 1.36317778E-08
  1 794 1.43135605E-08
  1 795 1.67628203E-08
  1 796 1.77494053E-08
  1 797 1.68417653E-08
  1 798 1.62862951E-08
  1 799 1.54854006E-08
  1 800 1.34118270E-08
  1 801 1.09592906E-08
  1 802 1.12542122E-08
  1 803 9.84274910E-09
  1 804 1.12350760E-08
  1 805 1.58017029E-08
  1 806 1.78168177E-08
  1 807 2.00306964E-08
  1 808 1.73928648E-08
  1 809 1.43635298E-08
  1 810 1.09190729E-08
  1 811 1.02377636E-08
  1 812 9.10344183E-09
  1 813 1.06420528E-08
  1 814 1.69266504E-08
  1 815 2.04800596E-08
  1 816 2.25428067E-08
  1 817 2.45421685E-08
  1 818 2.58822967E-08
  1 819 2.32647526E-08
  1 820 2.19801317E-08
  1 821 1.97811263E-08
  1 822 1.69851597E-08
  1 823 1.45257807E-08
  1 824 1.62376946E-08
  1 825 1.94628905E-08
  1 826 2.07513778E-08
  1 827 1.66352683E-08
  1 828 1.70064722E-08
  1 829 1.93167072E-08
  1 830 2.35751961E-08
  1 831 2.28725982E-08
  1 832 2.30455803E-08
  1 833 2.44375180E-08
  1 834 2.91150783E-08
  1 835 2.46150619E-08
  1 836 2.12846506E-08
  1 837 2.18879989E-08
  1 838 1.69131235E-08
  1 839 1.52462220E-08
  1 840 1.18809099E-08
  1 841 1.17517803E-08
  1 842 9.71093982E-09
  1 843 1.09926899E-08
  1 844 1.42002493E-08
  1 845 1.39911667E-08
  1 846 1.65929999E-08
  1 847 2.13660437E-08
  1 848 2.52864836E-08
  1 849 2.07060997E-08
  1 850 1.83373613E-08
  1 851 2.09524073E-08
  1 852 2.39193109E-08
  1 853 2.51134165E-08
  1 854 2.16218523E-08
  1 855 2.43043723E-08
  1 856 2.12797674E-08
  1 857 1.59196598E-08
  1 858 1.47516367E-08
  1 859 1.27674881E-08
  1 860 8.61501039E-09
  1 861 8.24811931E-09
  1 862 1.03196738E-08
  1 863 9.84718682E-09
  1 864 1.03409106E-08
  1 865 1.30204303E-08
  1 866 1.62969424E-08
  1 867 1.50229302E-08
  1 868 1.31297843E-08
  1 869 1.12264795E-08
  1 870 1.12558670E-08
  1 871 1.47988711E-08
  1 872 1.67645652E-08
  1 873 1.93437198E-08
  1 874 2.54368778E-08
  1 875 2.39617015E-08
  1 876 1.83981473E-08
  1 877 1.28507982E-08
  1 878 9.83130500E-09
  1 879 9.35799790E-09
  1 880 1.06953190E-08
  1 881 1.33653953E-08
  1 882 1.70699980E-08
  1 883 1.51666478E-08
  1 884 1.34705179E-08
  1 885 1.71086890E-08
  1 886 1.96881425E-08
  1 887 2.30890306E-08
  1 888 2.58139967E-08
  1 889 2.51576868E-08
  1 890 2.43695644E-08
  1 891 1.76199343E-08
  1 892 1.45658188E-08
  1 893 1.51388673E-08
  1 894 1.45549677E-08
  1 895 1.58360352E-08
  1 896 1.95836452E-08
  1 897 1.72297767E-08
  1 898 1.83206937E-08
  1 899 1.57302400E-08
  1 900 1.43865097E-08
  1 901 1.33627330E-08
  1 902 1.11100817E-08
  1 903 1.08387096E-08
  1 904 9.61000985E-09
  1 905 1.45587632E-08
  1 906 1.96777350E-08
  1 907 1.99800924E-08
  1 908 2.04913271E-08
  1 909 1.71140582E-08
  1 910 1.44644028E-08
  1 911 1.12803754E-08
  1 912 8.93883903E-09
  1 913 1.02371148E-08
  1 914 1.46466371E-08
  1 915 2.08595417E-08
  1 916 2.51029958E-08
  1 917 2.60030354E-08
  1 918 2.65022565E-08
  1 919 2.21854475E-08
  1 920 2.03604108E-08
  1 921 2.10450498E-08
  1 922 1.92582279E-08
  1 923 1.54815333E-08
  1 924 1.40026108E-08
  1 925 1.62853646E-08
  1 926 1.90626498E-08
  1 927 1.72381058E-08
  1 928 1.43179050E-08
  1 929 1.91041886E-08
  1 930 2.12104478E-08
  1 931 2.06994773E-08
  1 932 2.20172219E-08
  1 933 2.26414618E-08
  1 934 2.54453253E-08
  1 935 2.63416805E-08
  1 936 2.23809519E-08
  1 937 2.40002401E-08
  1 938 1.88111886E-08
  1 939 1.71711918E-08
  1 940 1.32919716E-08
  1 941 1.13922996E-08
  1 942 1.05497413E-08
  1 943 1.05272682E-08
  1 944 1.25647843E-08
  1 945 1.43843281E-08
  1 946 1.48796698E-08
  1 947 1.86721761E-08
  1 948 2.48481708E-08
  1 949 2.22816709E-08
  1 950 1.82562619E-08
  1 951 1.92225119E-08
  1 952 2.41002300E-08
  1 953 2.57538070E-08
  1 954 2.04726386E-08
  1 955 2.12707508E-08
  1 956 2.15765490E-08
  1 957 1.76895716E-08
  1 958 1.47893091E-08
  1 959 1.31355501E-08
  1 960 9.70744177E-09
  1 961 7.87530908E-09
  1 962 1.03254263E-08
  1 963 9.79748632E-09
  1 964 9.65531625E-09
  1 965 1.14578979E-08
  1 966 1.49237854E-08
  1 967 1.62610683E-08
  1 968 1.26843684E-08
  1 969 1.23240985E-08
  1 970 1.24242130E-08
  1 971 1.42324656E-08
  1 972 1.64738397E-08
  1 973 1.77545770E-08
  1 974 2.18880972E-08
  1 975 2.41103794E-08
  1 976 2.05990656E-08
  1 977 1.38633718E-08
  1 978 9.83376529E-09
  1 979 9.80267186E-09
  1 980 9.58251678E-09
  1 981 1.20636499E-08
  1 982 1.52287476E-08
  1 983 1.47493439E-08
  1 984 1.19024383E-08
  1 985 1.38936100E-08
  1 986 1.63761007E-08
  1 987 1.95177203E-08
  1 988 2.02313932E-08
  1 989 2.21033526E-08
  1 990 2.40596310E-08
  1 991 1.86988695E-08
  1 992 1.56831106E-08
  1 993 1.45425256E-08
  1 994 1.42437572E-08
  1 995 1.40466754E-08
  1 996 1.80745569E-08
  1 997 1.69933804E-08
  1 998 1.72531146E-08
  1 999 1.51798721E-08
  1 1000 1.51466310E-08
  1 1001 1.48652952E-08
  1 1002 1.14545697E-08
  1 1003 1.05607030E-08
  1 1004 9.87976010E-09
  1 1005 1.24567970E-08
  1 1006 1.81545477E-08
  1 1007 2.07719727E-08
  1 1008 2.40183572E-08
  1 1009 1.89830419E-08
  1 1010 1.57903995E-08
  1 1011 1.18053331E-08
  1 1012 9.21666018E-09
  1 1013 9.78147904E-09
  1 1014 1.28953782E-08
  1 1015 1.95095935E-08
  1 1016 2.66832001E-08
  1 1017 2.57541192E-08
  1 1018 2.42012789E-08
  1 1019 2.09080378E-08
  1 1020 1.83246136E-08
  1 1021 1.83246136E-08
  1 1022 1.83246136E-08
  1 1023 1.83246136E-08
  1 1024 1.97576511E-08
  1 1025 2.14666940E-08
  1 1026 1.68519296E-08
  1 1027 1.29237872E-08
  1 1028 1.27245898E-08
  1 1029 1.52036700E-08
  1 1030 1.79694710E-08
  1 1031 1.41422586E-08
  1 1032 1.53949706E-08
  1 1033 2.04956828E-08
  1 1034 2.07008201E-08
  1 1035 1.97489932E-08
  1 1036 1.94367862E-08
  1 1037 2.18385184E-08
  1 1038 2.44221915E-08
  1 1039 2.34803276E-08
  1 1040 2.40348933E-08
  1 1041 2.16582729E-08
  1 1042 1.91167568E-08
  1 1043 1.59830467E-08
  1 1044 1.16707618E-08
  1 1045 1.09017705E-08
  1 1046 9.99792861E-09
  1 1047 1.08573040E-08
  1 1048 1.23987088E-08
  1 1049 1.32553727E-08
  1 1050 1.62382983E-08
  1 1051 2.43200241E-08
  1 1052 2.31356520E-08
  1 1053 1.82873487E-08
  1 1054 1.82049584E-08
  1 1055 2.48431111E-08
  1 1056 2.58357070E-08
  1 1057 2.39844055E-08
  1 1058 1.93343057E-08
  1 1059 2.09424116E-08
  1 1060 2.03027277E-08
  1 1061 1.70350957E-08
  1 1062 1.46323136E-08
  1 1063 1.22380134E-08
  1 1064 1.22380134E-08
  1 1065 1.22380134E-08
  1 1066 1.22380134E-08
  1 1067 8.85310564E-09
  1 1068 1.03426742E-08
  1 1069 1.08963658E-08
  1 1070 1.06660537E-08
  1 1071 1.05868209E-08
  1 1072 1.38806241E-08
  1 1073 1.72939005E-08
  1 1074 1.37785750E-08
  1 1075 1.26260507E-08
  1 1076 1.47896686E-08
  1 1077 1.55973184E-08
  1 1078 1.68233002E-08
  1 1079 1.60905674E-08
  1 1080 1.92276632E-08
  1 1081 2.26881940E-08
  1 1082 2.15858413E-08
  1 1083 1.50488269E-08
  1 1084 1.09358641E-08
  1 1085 1.15535452E-08
  1 1086 1.02849318E-08
  1 1087 1.10299900E-08
  1 1088 1.36455030E-08
  1 1089 1.37147765E-08
  1 1090 1.36550525E-08
  1 1091 1.25223499E-08
  1 1092 1.52163847E-08
  1 1093 1.89460328E-08
  1 1094 1.88548979E-08
  1 1095 1.98711405E-08
  1 1096 2.37048066E-08
  1 1097 2.31028957E-08
  1 1098 1.69004912E-08
  1 1099 1.46844089E-08
  1 1100 1.38316147E-08
  1 1101 1.30721944E-08
  1 1102 1.56816201E-08
  1 1103 1.68490099E-08
  1 1104 1.69304534E-08
  1 1105 1.53568936E-08
  1 1106 1.37912187E-08
  1 1107 1.61795783E-08
  1 1108 1.29103917E-08
  1 1109 1.02152203E-08
  1 1110 1.05559426E-08
  1 1111 1.06404057E-08
  1 1112 1.49789496E-08
  1 1113 1.97080140E-08
  1 1114 2.41552052E-08
  1 1115 2.43188490E-08
  1 1116 1.58929640E-08
  1 1117 1.21633076E-08
  1 1118 9.95494502E-09
  1 1119 9.53495260E-09
  1 1120 1.24827052E-08
  1 1121 1.85221408E-08
  1 1122 2.69631811E-08
  1 1123 2.65915665E-08
  1 1124 2.52163411E-08
  1 1125 2.11120605E-08
  1 1126 2.11120605E-08
  1 1127 2.11120605E-08
  1 1128 2.11120605E-08
  1 1129 1.96140639E-08
  1 1130 1.96140639E-08
  1 1131 1.96140639E-08
  1 1132 1.96140639E-08
  1 1133 1.96140639E-08
  1 1134 1.96140639E-08
  1 1135 1.96140639E-08
  1 1136 1.96140639E-08
  1 1137 1.96140639E-08
  1 1138 1.96140639E-08
  1 1139 1.96140639E-08
  1 1140 1.96140639E-08
  1 1141 1.96140639E-08
  1 1142 1.96140639E-08
  1 1143 1.96140639E-08
  1 1144 1.96140639E-08
  1 1145 1.96140639E-08
  1 1146 1.96140639E-08
  1 1147 1.96140639E-08
  1 1148 1.96140639E-08
  1 1149 1.96140639E-08
  1 1150 1.96140639E-08
  1 1151 1.96140639E-08
  1 1152 1.96140639E-08
  1 1153 1.96140639E-08
  1 1154 1.96140639E-08
  1 1155 1.96140639E-08
  1 1156 1.96140639E-08
  1 1157 1.96140639E-08
  1 1158 1.96140639E-08
  1 1159 1.96140639E-08
  1 1160 1.96140639E-08
  1 1161 1.96140639E-08
  1 1162 1.96140639E-08
  1 1163 1.96140639E-08
  1 1164 1.96140639E-08
  1 1165 1.96140639E-08
  1 1166 1.96140639E-08
  1 1167 1.96140639E-08
  1 1168 1.96140639E-08
  1 1169 2.04511192E-08
  1 1170 2.04511192E-08
  1 1171 2.04511192E-08
  1 1172 2.04511192E-08
  1 1173 2.23884497E-08
  1 1174 1.96790718E-08
  1 1175 1.42021346E-08
  1 1176 1.26543875E-08
  1 1177 1.40266089E-08
  1 1178 1.67345806E-08
  1 1179 1.60419666E-08
  1 1180 1.41260737E-08
  1 1181 1.91933387E-08
  1 1182 2.02093264E-08
  1 1183 1.92101623E-08
  1 1184 1.58831860E-08
  1 1185 1.72830338E-08
  1 1186 1.99438948E-08
  1 1187 2.19222245E-08
  1 1188 2.26296126E-08
  1 1189 2.27796253E-08
  1 1190 1.85977218E-08
  1 1191 1.74586752E-08
  1 1192 1.26006133E-08
  1 1193 1.06839252E-08
  1 1194 1.10285091E-08
  1 1195 1.05244206E-08
  1 1196 1.14100057E-08
  1 1197 1.30237525E-08
  1 1198 1.49970889E-08
  1 1199 2.30909126E-08
  1 1200 2.46557878E-08
  1 1201 1.92855030E-08
  1 1202 1.81910302E-08
  1 1203 2.33227737E-08
  1 1204 2.62650531E-08
  1 1205 2.33497723E-08
  1 1206 1.80990037E-08
  1 1207 1.83712569E-08
  1 1208 2.06026548E-08
  1 1209 1.84848186E-08
  1 1210 1.46544586E-08
  1 1211 1.46544586E-08
  1 1212 1.46544586E-08
  1 1213 1.46544586E-08
  1 1214 1.33877062E-08
  1 1215 1.33877062E-08
  1 1216 1.33877062E-08
  1 1217 1.33877062E-08
  1 1218 1.33877062E-08
  1 1219 1.33877062E-08
  1 1220 1.33877062E-08
  1 1221 1.33877062E-08
  1 1222 1.33877062E-08
  1 1223 1.33877062E-08
  1 1224 1.33877062E-08
  1 1225 1.33877062E-08
  1 1226 1.33877062E-08
  1 1227 1.33877062E-08
  1 1228 1.33877062E-08
  1 1229 1.33877062E-08
  1 1230 1.33877062E-08
  1 1231 1.33877062E-08
  1 1232 1.33877062E-08
  1 1233 1.33877062E-08
  1 1234 1.33877062E-08
  1 1235 1.33877062E-08
  1 1236 1.33877062E-08
  1 1237 1.33877062E-08
  1 1238 1.33877062E-08
  1 1239 1.33877062E-08
  1 1240 1.33877062E-08
  1 1241 1.33877062E-08
  1 1242 1.33877062E-08
  1 1243 1.33877062E-08
  1 1244 1.33877062E-08
  1 1245 1.33877062E-08
  1 1246 1.33877062E-08
  1 1247 1.33877062E-08
  1 1248 1.33877062E-08
  1 1249 1.33877062E-08
  1 1250 1.33877062E-08
  1 1251 1.33877062E-08
  1 1252 1.33877062E-08
  1 1253 1.33877062E-08
  1 1254 1.03557993E-08
  1 1255 1.03557993E-08
  1 1256 1.03557993E-08
  1 1257 1.03557993E-08
  1 1258 9.91732443E-09
  1 1259 1.18325665E-08
  1 1260 1.14143090E-08
  1 1261 9.61835408E-09
  1 1262 1.26418316E-08
  1 1263 1.58811929E-08
  1 1264 1.64642553E-08
  1 1265 1.22609840E-08
  1 1266 1.49490690E-08
  1 1267 1.75597844E-08
  1 1268 1.72679416E-08
  1 1269 1.58925192E-08
  1 1270 1.85078042E-08
  1 1271 2.14215857E-08
  1 1272 2.18947609E-08
  1 1273 1.66481226E-08
  1 1274 1.23120090E-08
  1 1275 1.20744480E-08
  1 1276 1.17634458E-08
  1 1277 1.11951346E-08
  1 1278 1.23842557E-08
  1 1279 1.28823503E-08
  1 1280 1.49861703E-08
  1 1281 1.20421334E-08
  1 1282 1.46154444E-08
  1 1283 1.80051499E-08
  1 1284 1.86657085E-08
  1 1285 1.68405096E-08
  1 1286 2.09240288E-08
  1 1287 2.56734735E-08
  1 1288 1.83152512E-08
  1 1289 1.50497639E-08