# File generated by Flopy version 3.6.0 on 04/09/2024 at 15:32:38.
BEGIN options
END options

BEGIN dimensions
  MAXBOUND  7355
END dimensions

BEGIN period  1
  1 1 1.73076517E-08
  1 2 1.79016976E-08
  1 3 1.75663853E-08
  1 4 1.73078490E-08
  1 5 1.78443432E-08
  1 6 1.83107965E-08
  1 7 1.81549254E-08
  1 8 1.79581151E-08
  1 9 1.79598094E-08
  1 10 1.81483295E-08
  1 11 1.78690200E-08
  1 12 1.72694109E-08
  1 13 1.69103436E-08
  1 14 1.65161861E-08
  1 15 1.65070565E-08
  1 16 1.59689392E-08
  1 17 1.55620846E-08
  1 18 1.50973901E-08
  1 19 1.50081043E-08
  1 20 1.55088366E-08
  1 21 1.60081710E-08
  1 22 1.59203448E-08
  1 23 1.52312839E-08
  1 24 1.51539690E-08
  1 25 1.55367965E-08
  1 26 1.55679433E-08
  1 27 1.58510057E-08
  1 28 1.67546266E-08
  1 29 1.81881879E-08
  1 30 1.86377025E-08
  1 31 1.86735939E-08
  1 32 1.78515135E-08
  1 33 1.74685233E-08
  1 34 1.70622346E-08
  1 35 1.67311306E-08
  1 36 1.65279733E-08
  1 37 1.61153207E-08
  1 38 1.57179519E-08
  1 39 1.56596770E-08
  1 40 1.54583755E-08
  1 41 1.56709027E-08
  1 42 1.60378323E-08
  1 43 1.65216529E-08
  1 44 1.66335491E-08
  1 45 1.63074183E-08
  1 46 1.58230491E-08
  1 47 1.47513605E-08
  1 48 1.37515307E-08
  1 49 1.31284501E-08
  1 50 1.30571568E-08
  1 51 1.30930686E-08
  1 52 1.30929968E-08
  1 53 1.34095366E-08
  1 54 1.38089358E-08
  1 55 1.42126025E-08
  1 56 1.42482129E-08
  1 57 1.44601567E-08
  1 58 1.42879619E-08
  1 59 1.42374692E-08
  1 60 1.43702004E-08
  1 61 1.43051966E-08
  1 62 1.44931975E-08
  1 63 1.46805806E-08
  1 64 1.54488297E-08
  1 65 1.58086502E-08
  1 66 1.58163532E-08
  1 67 1.51693985E-08
  1 68 1.39134090E-08
  1 69 1.31409421E-08
  1 70 1.31901346E-08
  1 71 1.32086379E-08
  1 72 1.34461924E-08
  1 73 1.35059267E-08
  1 74 1.42070853E-08
  1 75 1.47645500E-08
  1 76 1.56613630E-08
  1 77 1.70402644E-08
  1 78 1.83934762E-08
  1 79 1.92515722E-08
  1 80 1.97358792E-08
  1 81 1.91145408E-08
  1 82 1.82546357E-08
  1 83 1.72449580E-08
  1 84 1.63995741E-08
  1 85 1.59118328E-08
  1 86 1.55032333E-08
  1 87 1.52546655E-08
  1 88 1.53536281E-08
  1 89 1.57972618E-08
  1 90 1.52466354E-08
  1 91 1.47487815E-08
  1 92 1.48246292E-08
  1 93 1.50203331E-08
  1 94 1.48316898E-08
  1 95 1.48797892E-08
  1 96 1.50788652E-08
  1 97 1.45989034E-08
  1 98 1.43702499E-08
  1 99 1.44814510E-08
  1 100 1.47383556E-08
  1 101 1.81790018E-08
  1 102 1.86903898E-08
  1 103 1.88640541E-08
  1 104 1.82386979E-08
  1 105 1.77931329E-08
  1 106 1.77262870E-08
  1 107 1.73734736E-08
  1 108 1.71138529E-08
  1 109 1.68841832E-08
  1 110 1.65608857E-08
  1 111 1.59862174E-08
  1 112 1.60452941E-08
  1 113 1.59502465E-08
  1 114 1.57163140E-08
  1 115 1.52246455E-08
  1 116 1.50759573E-08
  1 117 1.51713965E-08
  1 118 1.53817793E-08
  1 119 1.50401959E-08
  1 120 1.45636518E-08
  1 121 1.45621210E-08
  1 122 1.52205680E-08
  1 123 1.54142484E-08
  1 124 1.55338182E-08
  1 125 1.63334407E-08
  1 126 1.75672766E-08
  1 127 1.79678967E-08
  1 128 1.80210974E-08
  1 129 1.75590960E-08
  1 130 1.70018386E-08
  1 131 1.63855781E-08
  1 132 1.59967830E-08
  1 133 1.61440863E-08
  1 134 1.61628162E-08
  1 135 1.59670465E-08
  1 136 1.56606854E-08
  1 137 1.56157144E-08
  1 138 1.59618505E-08
  1 139 1.67081542E-08
  1 140 1.71150358E-08
  1 141 1.71521642E-08
  1 142 1.67178112E-08
  1 143 1.66866890E-08
  1 144 1.56646591E-08
  1 145 1.45982872E-08
  1 146 1.38697048E-08
  1 147 1.33028048E-08
  1 148 1.32613395E-08
  1 149 1.32529070E-08
  1 150 1.35916669E-08
  1 151 1.42043686E-08
  1 152 1.42395580E-08
  1 153 1.40777865E-08
  1 154 1.41962615E-08
  1 155 1.42734485E-08
  1 156 1.42890669E-08
  1 157 1.47920906E-08
  1 158 1.49277145E-08
  1 159 1.53191492E-08
  1 160 1.58308228E-08
  1 161 1.64844043E-08
  1 162 1.72525379E-08
  1 163 1.68252791E-08
  1 164 1.58792964E-08
  1 165 1.44116962E-08
  1 166 1.37967248E-08
  1 167 1.32960014E-08
  1 168 1.32375634E-08
  1 169 1.34825059E-08
  1 170 1.38951731E-08
  1 171 1.47403984E-08
  1 172 1.55441194E-08
  1 173 1.60396468E-08
  1 174 1.75132296E-08
  1 175 1.87179373E-08
  1 176 1.91926331E-08
  1 177 1.93016730E-08
  1 178 1.87749043E-08
  1 179 1.79123790E-08
  1 180 1.65399731E-08
  1 181 1.54678775E-08
  1 182 1.49115089E-08
  1 183 1.47512317E-08
  1 184 1.46152323E-08
  1 185 1.45794013E-08
  1 186 1.48355938E-08
  1 187 1.46364976E-08
  1 188 1.43315260E-08
  1 189 1.46887486E-08
  1 190 1.48783648E-08
  1 191 1.46568556E-08
  1 192 1.44718129E-08
  1 193 1.46125088E-08
  1 194 1.41931246E-08
  1 195 1.41262486E-08
  1 196 1.41437440E-08
  1 197 1.46337248E-08
  1 198 1.52508419E-08
  1 199 1.60530033E-08
  1 200 1.63758782E-08
  1 201 1.81629798E-08
  1 202 1.77612257E-08
  1 203 1.73402568E-08
  1 204 1.68739629E-08
  1 205 1.68532457E-08
  1 206 1.66290392E-08
  1 207 1.61431186E-08
  1 208 1.57304902E-08
  1 209 1.53396921E-08
  1 210 1.54191021E-08
  1 211 1.54639260E-08
  1 212 1.50673493E-08
  1 213 1.49000683E-08
  1 214 1.52860570E-08
  1 215 1.53343722E-08
  1 216 1.48437746E-08
  1 217 1.42610863E-08
  1 218 1.43759664E-08
  1 219 1.44337264E-08
  1 220 1.46926819E-08
  1 221 1.50311632E-08
  1 222 1.58235546E-08
  1 223 1.68455538E-08
  1 224 1.71997696E-08
  1 225 1.73350011E-08
  1 226 1.72947513E-08
  1 227 1.65672771E-08
  1 228 1.58953376E-08
  1 229 1.57507721E-08
  1 230 1.52997643E-08
  1 231 1.54420152E-08
  1 232 1.51355928E-08
  1 233 1.53712218E-08
  1 234 1.57541887E-08
  1 235 1.64579801E-08
  1 236 1.73849386E-08
  1 237 1.75606687E-08
  1 238 1.72312438E-08
  1 239 1.71220256E-08
  1 240 1.70091667E-08
  1 241 1.63451635E-08
  1 242 1.51468472E-08
  1 243 1.42669394E-08
  1 244 1.37588664E-08
  1 245 1.37067307E-08
  1 246 1.39557879E-08
  1 247 1.40604560E-08
  1 248 1.45096475E-08
  1 249 1.43019421E-08
  1 250 1.40792537E-08
  1 251 1.40345671E-08
  1 252 1.41426399E-08
  1 253 1.42824544E-08
  1 254 1.46609645E-08
  1 255 1.52668114E-08
  1 256 1.59423159E-08
  1 257 1.70435962E-08
  1 258 1.74180804E-08
  1 259 1.74927439E-08
  1 260 1.68874807E-08
  1 261 1.59762367E-08
  1 262 1.47529697E-08
  1 263 1.39410357E-08
  1 264 1.36300526E-08
  1 265 1.34859442E-08
  1 266 1.35988146E-08
  1 267 1.40159579E-08
  1 268 1.48564084E-08
  1 269 1.56678146E-08
  1 270 1.68109166E-08
  1 271 1.79351150E-08
  1 272 1.87082909E-08
  1 273 1.85539898E-08
  1 274 1.86380762E-08
  1 275 1.83450058E-08
  1 276 1.75697356E-08
  1 277 1.63349583E-08
  1 278 1.48914476E-08
  1 279 1.40149535E-08
  1 280 1.39443821E-08
  1 281 1.42916620E-08
  1 282 1.45093399E-08
  1 283 1.47230638E-08
  1 284 1.48469006E-08
  1 285 1.46979712E-08
  1 286 1.47701985E-08
  1 287 1.46762463E-08
  1 288 1.44129452E-08
  1 289 1.41036739E-08
  1 290 1.38749403E-08
  1 291 1.38059756E-08
  1 292 1.38629526E-08
  1 293 1.38737244E-08
  1 294 1.43877541E-08
  1 295 1.52864903E-08
  1 296 1.62730944E-08
  1 297 1.68994026E-08
  1 298 1.76974293E-08
  1 299 1.81649685E-08
  1 300 1.80019007E-08
  1 301 1.70991374E-08
  1 302 1.68995026E-08
  1 303 1.62358641E-08
  1 304 1.55624637E-08
  1 305 1.52579169E-08
  1 306 1.50028468E-08
  1 307 1.51096368E-08
  1 308 1.52356969E-08
  1 309 1.48957306E-08
  1 310 1.44433490E-08
  1 311 1.46649444E-08
  1 312 1.50646446E-08
  1 313 1.48170232E-08
  1 314 1.43151005E-08
  1 315 1.43155971E-08
  1 316 1.40031529E-08
  1 317 1.38888024E-08
  1 318 1.44005812E-08
  1 319 1.52825772E-08
  1 320 1.62957040E-08
  1 321 1.68127976E-08
  1 322 1.69438827E-08
  1 323 1.68419855E-08
  1 324 1.65750524E-08
  1 325 1.59044033E-08
  1 326 1.56583351E-08
  1 327 1.49849276E-08
  1 328 1.48049066E-08
  1 329 1.47080920E-08
  1 330 1.50374632E-08
  1 331 1.59752476E-08
  1 332 1.69765612E-08
  1 333 1.78771019E-08
  1 334 1.81389574E-08
  1 335 1.77710146E-08
  1 336 1.72796001E-08
  1 337 1.73237421E-08
  1 338 1.69107035E-08
  1 339 1.64075682E-08
  1 340 1.54965740E-08
  1 341 1.48612292E-08
  1 342 1.46548359E-08
  1 343 1.46842639E-08
  1 344 1.46741236E-08
  1 345 1.43480192E-08
  1 346 1.42530289E-08
  1 347 1.41282094E-08
  1 348 1.40717375E-08
  1 349 1.39670047E-08
  1 350 1.43226883E-08
  1 351 1.48515241E-08
  1 352 1.55374555E-08
  1 353 1.61502222E-08
  1 354 1.69632692E-08
  1 355 1.75788624E-08
  1 356 1.76368779E-08
  1 357 1.70727153E-08
  1 358 1.57510424E-08
  1 359 1.47902680E-08
  1 360 1.41099761E-08
  1 361 1.40358485E-08
  1 362 1.39449038E-08
  1 363 1.38426168E-08
  1 364 1.42895190E-08
  1 365 1.53328359E-08
  1 366 1.60247934E-08
  1 367 1.70282838E-08
  1 368 1.77712147E-08
  1 369 1.79944526E-08
  1 370 1.81331106E-08
  1 371 1.82708335E-08
  1 372 1.79954546E-08
  1 373 1.66634965E-08
  1 374 1.56604747E-08
  1 375 1.43689422E-08
  1 376 1.36810010E-08
  1 377 1.37865798E-08
  1 378 1.43271839E-08
  1 379 1.45339969E-08
  1 380 1.48349122E-08
  1 381 1.50703391E-08
  1 382 1.49371967E-08
  1 383 1.47125692E-08
  1 384 1.47331770E-08
  1 385 1.44842425E-08
  1 386 1.40220843E-08
  1 387 1.33004240E-08
  1 388 1.31744243E-08
  1 389 1.34444902E-08
  1 390 1.39859515E-08
  1 391 1.46912449E-08
  1 392 1.54725655E-08
  1 393 1.59300268E-08
  1 394 1.67218058E-08
  1 395 1.76162284E-08
  1 396 1.82980251E-08
  1 397 1.84016178E-08
  1 398 1.86949024E-08
  1 399 1.93303427E-08
  1 400 1.91610601E-08
  1 401 1.60837063E-08
  1 402 1.52784464E-08
  1 403 1.50445943E-08
  1 404 1.50549587E-08
  1 405 1.51108808E-08
  1 406 1.49548836E-08
  1 407 1.45185049E-08
  1 408 1.42510571E-08
  1 409 1.45573217E-08
  1 410 1.46695235E-08
  1 411 1.45265084E-08
  1 412 1.42655259E-08
  1 413 1.40300875E-08
  1 414 1.35906980E-08
  1 415 1.35144951E-08
  1 416 1.44753419E-08
  1 417 1.54333290E-08
  1 418 1.61675685E-08
  1 419 1.59728448E-08
  1 420 1.59422856E-08
  1 421 1.61750458E-08
  1 422 1.62143306E-08
  1 423 1.55698229E-08
  1 424 1.55963396E-08
  1 425 1.47421310E-08
  1 426 1.46194590E-08
  1 427 1.51469919E-08
  1 428 1.61373510E-08
  1 429 1.74510280E-08
  1 430 1.85460546E-08
  1 431 1.91652538E-08
  1 432 1.88621746E-08
  1 433 1.82675715E-08
  1 434 1.79551245E-08
  1 435 1.78237943E-08
  1 436 1.74910612E-08
  1 437 1.69362403E-08
  1 438 1.61011968E-08
  1 439 1.56277586E-08
  1 440 1.52570914E-08
  1 441 1.47229852E-08
  1 442 1.42760473E-08
  1 443 1.40384328E-08
  1 444 1.41388032E-08
  1 445 1.38593217E-08
  1 446 1.38451238E-08
  1 447 1.41659366E-08
  1 448 1.49569257E-08
  1 449 1.55806264E-08
  1 450 1.61849717E-08
  1 451 1.68823862E-08
  1 452 1.76240617E-08
  1 453 1.77524176E-08
  1 454 1.68689259E-08
  1 455 1.59698886E-08
  1 456 1.53034939E-08
  1 457 1.50153141E-08
  1 458 1.44687224E-08
  1 459 1.44534899E-08
  1 460 1.47627517E-08
  1 461 1.53186239E-08
  1 462 1.61885707E-08
  1 463 1.67448663E-08
  1 464 1.70114183E-08
  1 465 1.72785786E-08
  1 466 1.74746109E-08
  1 467 1.73288268E-08
  1 468 1.73379582E-08
  1 469 1.73126724E-08
  1 470 1.62082604E-08
  1 471 1.46371580E-08
  1 472 1.35964361E-08
  1 473 1.32290660E-08
  1 474 1.35549990E-08
  1 475 1.44838857E-08
  1 476 1.48578124E-08
  1 477 1.50037674E-08
  1 478 1.49460176E-08
  1 479 1.47052792E-08
  1 480 1.45701890E-08
  1 481 1.45913417E-08
  1 482 1.45728645E-08
  1 483 1.39623926E-08
  1 484 1.33142638E-08
  1 485 1.31491166E-08
  1 486 1.36269164E-08
  1 487 1.42406178E-08
  1 488 1.49189901E-08
  1 489 1.51692554E-08
  1 490 1.56497634E-08
  1 491 1.65675814E-08
  1 492 1.74416634E-08
  1 493 1.83309361E-08
  1 494 1.85036614E-08
  1 495 1.87894679E-08
  1 496 1.94630015E-08
  1 497 1.91398061E-08
  1 498 1.90234364E-08
  1 499 1.85488545E-08
  1 500 1.85475685E-08
  1 501 1.53733862E-08
  1 502 1.51710260E-08
  1 503 1.49290459E-08
  1 504 1.44823068E-08
  1 505 1.47659629E-08
  1 506 1.50234181E-08
  1 507 1.50217256E-08
  1 508 1.50023521E-08
  1 509 1.47449810E-08
  1 510 1.41964595E-08
  1 511 1.34321208E-08
  1 512 1.34553692E-08
  1 513 1.39932099E-08
  1 514 1.49820891E-08
  1 515 1.58197052E-08
  1 516 1.58299437E-08
  1 517 1.58510360E-08
  1 518 1.63100264E-08
  1 519 1.63338716E-08
  1 520 1.59104275E-08
  1 521 1.54487124E-08
  1 522 1.50651910E-08
  1 523 1.49902107E-08
  1 524 1.56035445E-08
  1 525 1.59268323E-08
  1 526 1.68806644E-08
  1 527 1.81726383E-08
  1 528 1.90496369E-08
  1 529 1.93705581E-08
  1 530 1.93429369E-08
  1 531 1.90013379E-08
  1 532 1.82231468E-08
  1 533 1.78930625E-08
  1 534 1.72599641E-08
  1 535 1.65012680E-08
  1 536 1.54385283E-08
  1 537 1.49512588E-08
  1 538 1.43201522E-08
  1 539 1.44457540E-08
  1 540 1.46857387E-08
  1 541 1.41773666E-08
  1 542 1.37816664E-08
  1 543 1.39312620E-08
  1 544 1.44471548E-08
  1 545 1.49894504E-08
  1 546 1.57060788E-08
  1 547 1.64250840E-08
  1 548 1.69078361E-08
  1 549 1.74264521E-08
  1 550 1.69587733E-08
  1 551 1.63613121E-08
  1 552 1.60871612E-08
  1 553 1.59990140E-08
  1 554 1.58079213E-08
  1 555 1.52143096E-08
  1 556 1.49937633E-08
  1 557 1.54238704E-08
  1 558 1.55400358E-08
  1 559 1.60731743E-08
  1 560 1.66355905E-08
  1 561 1.67977782E-08
  1 562 1.71754841E-08
  1 563 1.73288621E-08
  1 564 1.70401848E-08
  1 565 1.69765362E-08
  1 566 1.69229638E-08
  1 567 1.57704769E-08
  1 568 1.41707136E-08
  1 569 1.32825893E-08
  1 570 1.32650395E-08
  1 571 1.35934872E-08
  1 572 1.41855334E-08
  1 573 1.45621073E-08
  1 574 1.49512865E-08
  1 575 1.51646977E-08
  1 576 1.50233072E-08
  1 577 1.49281581E-08
  1 578 1.48851694E-08
  1 579 1.46353243E-08
  1 580 1.39135620E-08
  1 581 1.35005326E-08
  1 582 1.35244036E-08
  1 583 1.41538501E-08
  1 584 1.47329530E-08
  1 585 1.49197707E-08
  1 586 1.52104242E-08
  1 587 1.57743123E-08
  1 588 1.67157708E-08
  1 589 1.75076883E-08
  1 590 1.83169441E-08
  1 591 1.86027812E-08
  1 592 1.88764267E-08
  1 593 1.96891832E-08
  1 594 1.96140624E-08
  1 595 1.93687068E-08
  1 596 1.87104136E-08
  1 597 1.82231720E-08
  1 598 1.81554958E-08
  1 599 1.77765883E-08
  1 600 1.77004523E-08
  1 601 1.48598031E-08
  1 602 1.50313794E-08
  1 603 1.51364830E-08
  1 604 1.49216606E-08
  1 605 1.50054499E-08
  1 606 1.48939563E-08
  1 607 1.40596585E-08
  1 608 1.33449044E-08
  1 609 1.34943293E-08
  1 610 1.39476849E-08
  1 611 1.47015452E-08
  1 612 1.56647996E-08
  1 613 1.63226299E-08
  1 614 1.63162171E-08
  1 615 1.64730757E-08
  1 616 1.67372976E-08
  1 617 1.64319240E-08
  1 618 1.57474537E-08
  1 619 1.53215440E-08
  1 620 1.54306029E-08
  1 621 1.56849243E-08
  1 622 1.60395766E-08
  1 623 1.66091705E-08
  1 624 1.78897132E-08
  1 625 1.84141266E-08
  1 626 1.91147818E-08
  1 627 1.93864518E-08
  1 628 1.94243174E-08
  1 629 1.84232224E-08
  1 630 1.79505606E-08
  1 631 1.72321054E-08
  1 632 1.61680897E-08
  1 633 1.52183134E-08
  1 634 1.44083853E-08
  1 635 1.41817289E-08
  1 636 1.43620005E-08
  1 637 1.48713470E-08
  1 638 1.45331106E-08
  1 639 1.40777484E-08
  1 640 1.39493413E-08
  1 641 1.43176126E-08
  1 642 1.46753761E-08
  1 643 1.52239485E-08
  1 644 1.60393323E-08
  1 645 1.64237309E-08
  1 646 1.66925598E-08
  1 647 1.62992396E-08
  1 648 1.58608096E-08
  1 649 1.60262487E-08
  1 650 1.62419865E-08
  1 651 1.61886724E-08
  1 652 1.58224538E-08
  1 653 1.53056576E-08
  1 654 1.52513284E-08
  1 655 1.53969303E-08
  1 656 1.60322545E-08
  1 657 1.64434778E-08
  1 658 1.61657802E-08
  1 659 1.65192249E-08
  1 660 1.67909780E-08
  1 661 1.71513810E-08
  1 662 1.72627035E-08
  1 663 1.70318499E-08
  1 664 1.58338400E-08
  1 665 1.43233337E-08
  1 666 1.36448777E-08
  1 667 1.34337725E-08
  1 668 1.35811918E-08
  1 669 1.38812215E-08
  1 670 1.41350298E-08
  1 671 1.46338255E-08
  1 672 1.47719106E-08
  1 673 1.48110481E-08
  1 674 1.49445061E-08
  1 675 1.51724605E-08
  1 676 1.48987970E-08
  1 677 1.42436900E-08
  1 678 1.36275698E-08
  1 679 1.39166119E-08
  1 680 1.43422184E-08
  1 681 1.49770843E-08
  1 682 1.50272635E-08
  1 683 1.56275876E-08
  1 684 1.64614288E-08
  1 685 1.70794237E-08
  1 686 1.75458309E-08
  1 687 1.80328200E-08
  1 688 1.87239484E-08
  1 689 1.93132865E-08
  1 690 1.97537722E-08
  1 691 1.93337826E-08
  1 692 1.88026127E-08
  1 693 1.81218909E-08
  1 694 1.77226510E-08
  1 695 1.75017644E-08
  1 696 1.74832972E-08
  1 697 1.75776316E-08
  1 698 1.80280430E-08
  1 699 1.78616350E-08
  1 700 1.72191438E-08
  1 701 1.46919896E-08
  1 702 1.43667866E-08
  1 703 1.42083833E-08
  1 704 1.37081015E-08
  1 705 1.33312011E-08
  1 706 1.33646272E-08
  1 707 1.34941062E-08
  1 708 1.43419901E-08
  1 709 1.53415384E-08
  1 710 1.67313277E-08
  1 711 1.70975922E-08
  1 712 1.72125876E-08
  1 713 1.73253656E-08
  1 714 1.69220344E-08
  1 715 1.63006545E-08
  1 716 1.56851671E-08
  1 717 1.53028453E-08
  1 718 1.56066587E-08
  1 719 1.61981573E-08
  1 720 1.67833028E-08
  1 721 1.72769883E-08
  1 722 1.77900343E-08
  1 723 1.82931326E-08
  1 724 1.91770579E-08
  1 725 1.89879172E-08
  1 726 1.84086083E-08
  1 727 1.75883752E-08
  1 728 1.69504239E-08
  1 729 1.58526507E-08
  1 730 1.48406827E-08
  1 731 1.40440733E-08
  1 732 1.38842316E-08
  1 733 1.42019670E-08
  1 734 1.48550941E-08
  1 735 1.48898261E-08
  1 736 1.40453114E-08
  1 737 1.37781424E-08
  1 738 1.41271620E-08
  1 739 1.44873336E-08
  1 740 1.45810497E-08
  1 741 1.51221836E-08
  1 742 1.54688421E-08
  1 743 1.58602821E-08
  1 744 1.60444605E-08
  1 745 1.58530001E-08
  1 746 1.60573252E-08
  1 747 1.65271638E-08
  1 748 1.65008887E-08
  1 749 1.61531589E-08
  1 750 1.53430699E-08
  1 751 1.50619976E-08
  1 752 1.52061548E-08
  1 753 1.59314901E-08
  1 754 1.60757037E-08
  1 755 1.55862963E-08
  1 756 1.55009627E-08
  1 757 1.57954405E-08
  1 758 1.65361478E-08
  1 759 1.68062511E-08
  1 760 1.70527706E-08
  1 761 1.65309666E-08
  1 762 1.50981561E-08
  1 763 1.41625506E-08
  1 764 1.37606561E-08
  1 765 1.38163334E-08
  1 766 1.37953254E-08
  1 767 1.37757273E-08
  1 768 1.42278988E-08
  1 769 1.44610726E-08
  1 770 1.48251171E-08
  1 771 1.49304987E-08
  1 772 1.49033673E-08
  1 773 1.44997630E-08
  1 774 1.44849375E-08
  1 775 1.44342795E-08
  1 776 1.52704019E-08
  1 777 1.57084125E-08
  1 778 1.57799786E-08
  1 779 1.57282914E-08
  1 780 1.61391321E-08
  1 781 1.67637495E-08
  1 782 1.70530674E-08
  1 783 1.72836746E-08
  1 784 1.79224963E-08
  1 785 1.85341729E-08
  1 786 1.93269053E-08
  1 787 1.90178159E-08
  1 788 1.86102275E-08
  1 789 1.79314129E-08
  1 790 1.74655297E-08
  1 791 1.69911007E-08
  1 792 1.66000946E-08
  1 793 1.67366775E-08
  1 794 1.71284504E-08
  1 795 1.78330921E-08
  1 796 1.83411531E-08
  1 797 1.79679764E-08
  1 798 1.73239951E-08
  1 799 1.68769955E-08
  1 800 1.65785411E-08
  1 801 1.36962378E-08
  1 802 1.32354793E-08
  1 803 1.30361696E-08
  1 804 1.32122943E-08
  1 805 1.43453824E-08
  1 806 1.57636245E-08
  1 807 1.66130288E-08
  1 808 1.77610901E-08
  1 809 1.79494312E-08
  1 810 1.73603991E-08
  1 811 1.66040031E-08
  1 812 1.58800185E-08
  1 813 1.56205930E-08
  1 814 1.52084337E-08
  1 815 1.56143181E-08
  1 816 1.64496126E-08
  1 817 1.69277687E-08
  1 818 1.66536275E-08
  1 819 1.67068438E-08
  1 820 1.73940195E-08
  1 821 1.81075800E-08
  1 822 1.81800637E-08
  1 823 1.77462410E-08
  1 824 1.72267338E-08
  1 825 1.60771542E-08
  1 826 1.53002090E-08
  1 827 1.44418210E-08
  1 828 1.41100081E-08
  1 829 1.39530587E-08
  1 830 1.37190442E-08
  1 831 1.43544197E-08
  1 832 1.46655926E-08
  1 833 1.40443519E-08
  1 834 1.39822059E-08
  1 835 1.44451727E-08
  1 836 1.46373423E-08
  1 837 1.45751155E-08
  1 838 1.50968699E-08
  1 839 1.56266605E-08
  1 840 1.58602467E-08
  1 841 1.61028827E-08
  1 842 1.61971787E-08
  1 843 1.62113764E-08
  1 844 1.65027671E-08
  1 845 1.66562453E-08
  1 846 1.62310776E-08
  1 847 1.52602880E-08
  1 848 1.47201288E-08
  1 849 1.50049753E-08
  1 850 1.53728479E-08
  1 851 1.60140324E-08
  1 852 1.56206767E-08
  1 853 1.56016952E-08
  1 854 1.53394061E-08
  1 855 1.58691473E-08
  1 856 1.64548241E-08
  1 857 1.70204483E-08
  1 858 1.67248475E-08
  1 859 1.58281137E-08
  1 860 1.48148780E-08
  1 861 1.45910047E-08
  1 862 1.44316133E-08
  1 863 1.41053566E-08
  1 864 1.37382927E-08
  1 865 1.38797515E-08
  1 866 1.44055337E-08
  1 867 1.48528201E-08
  1 868 1.52204967E-08
  1 869 1.53427168E-08
  1 870 1.49042516E-08
  1 871 1.46810895E-08
  1 872 1.50904192E-08
  1 873 1.65481801E-08
  1 874 1.73291703E-08
  1 875 1.75160657E-08
  1 876 1.69084205E-08
  1 877 1.68993095E-08
  1 878 1.68708831E-08
  1 879 1.64895785E-08
  1 880 1.68284639E-08
  1 881 1.80691125E-08
  1 882 1.85994292E-08
  1 883 1.84587629E-08
  1 884 1.86252155E-08
  1 885 1.81923286E-08
  1 886 1.73376690E-08
  1 887 1.67404864E-08
  1 888 1.60096498E-08
  1 889 1.54683795E-08
  1 890 1.57254050E-08
  1 891 1.66139425E-08
  1 892 1.72641553E-08
  1 893 1.81828757E-08
  1 894 1.85212828E-08
  1 895 1.82997776E-08
  1 896 1.76882138E-08
  1 897 1.67488293E-08
  1 898 1.60527606E-08
  1 899 1.60150532E-08
  1 900 1.60317484E-08
  1 901 1.40078677E-08
  1 902 1.47583589E-08
  1 903 1.59290703E-08
  1 904 1.67312075E-08
  1 905 1.76977226E-08
  1 906 1.78951115E-08
  1 907 1.68372119E-08
  1 908 1.60374149E-08
  1 909 1.50800647E-08
  1 910 1.50754472E-08
  1 911 1.49835122E-08
  1 912 1.51384999E-08
  1 913 1.56978243E-08
  1 914 1.63129494E-08
  1 915 1.65119551E-08
  1 916 1.65964757E-08
  1 917 1.69524781E-08
  1 918 1.74552812E-08
  1 919 1.70506974E-08
  1 920 1.71751986E-08
  1 921 1.68264414E-08
  1 922 1.62319669E-08
  1 923 1.50116075E-08
  1 924 1.45537964E-08
  1 925 1.41392399E-08
  1 926 1.38864845E-08
  1 927 1.36778664E-08
  1 928 1.42624451E-08
  1 929 1.47448577E-08
  1 930 1.42841554E-08
  1 931 1.43271126E-08
  1 932 1.48066884E-08
  1 933 1.51738833E-08
  1 934 1.52071999E-08
  1 935 1.57216495E-08
  1 936 1.58733890E-08
  1 937 1.63586347E-08
  1 938 1.65253418E-08
  1 939 1.63875340E-08
  1 940 1.61184307E-08
  1 941 1.64272650E-08
  1 942 1.69379092E-08
  1 943 1.65629171E-08
  1 944 1.57142581E-08
  1 945 1.47685449E-08
  1 946 1.46224078E-08
  1 947 1.49102900E-08
  1 948 1.59319811E-08
  1 949 1.59020914E-08
  1 950 1.55306433E-08
  1 951 1.53813454E-08
  1 952 1.55814153E-08
  1 953 1.62766545E-08
  1 954 1.64336291E-08
  1 955 1.64703918E-08
  1 956 1.61148217E-08
  1 957 1.57788400E-08
  1 958 1.53391302E-08
  1 959 1.48110401E-08
  1 960 1.44465853E-08
  1 961 1.40825331E-08
  1 962 1.39884244E-08
  1 963 1.44166964E-08
  1 964 1.46997990E-08
  1 965 1.52028193E-08
  1 966 1.55243281E-08
  1 967 1.50800176E-08
  1 968 1.53391840E-08
  1 969 1.62469505E-08
  1 970 1.76186865E-08
  1 971 1.80379619E-08
  1 972 1.76698426E-08
  1 973 1.70157820E-08
  1 974 1.67292271E-08
  1 975 1.68548460E-08
  1 976 1.66710446E-08
  1 977 1.69930861E-08
  1 978 1.78818411E-08
  1 979 1.82766375E-08
  1 980 1.82335416E-08
  1 981 1.88029160E-08
  1 982 1.81057601E-08
  1 983 1.73517569E-08
  1 984 1.65690289E-08
  1 985 1.56871802E-08
  1 986 1.51691914E-08
  1 987 1.52578092E-08
  1 988 1.62311711E-08
  1 989 1.68963518E-08
  1 990 1.79847329E-08
  1 991 1.85508686E-08
  1 992 1.83378476E-08
  1 993 1.75220846E-08
  1 994 1.64905108E-08
  1 995 1.58082507E-08
  1 996 1.58453450E-08
  1 997 1.57043238E-08
  1 998 1.56614598E-08
  1 999 1.57234419E-08
  1 1000 1.54536196E-08
  1 1001 1.72739954E-08
  1 1002 1.75954302E-08
  1 1003 1.70865369E-08
  1 1004 1.59903810E-08
  1 1005 1.53302473E-08
  1 1006 1.47634233E-08
  1 1007 1.43124529E-08
  1 1008 1.43794599E-08
  1 1009 1.44436080E-08
  1 1010 1.48533553E-08
  1 1011 1.50890636E-08
  1 1012 1.55228510E-08
  1 1013 1.62184934E-08
  1 1014 1.65346665E-08
  1 1015 1.74366815E-08
  1 1016 1.74269525E-08
  1 1017 1.69910227E-08
  1 1018 1.61389300E-08
  1 1019 1.55738918E-08
  1 1020 1.48146064E-08
  1 1021 1.48146064E-08
  1 1022 1.48146064E-08
  1 1023 1.48146064E-08
  1 1024 1.45855291E-08
  1 1025 1.44006023E-08
  1 1026 1.40100541E-08
  1 1027 1.41205941E-08
  1 1028 1.41515659E-08
  1 1029 1.45466699E-08
  1 1030 1.43232800E-08
  1 1031 1.45752139E-08
  1 1032 1.49477483E-08
  1 1033 1.52401592E-08
  1 1034 1.54858678E-08
  1 1035 1.58881634E-08
  1 1036 1.66215419E-08
  1 1037 1.72156894E-08
  1 1038 1.72857523E-08
  1 1039 1.65981457E-08
  1 1040 1.62962468E-08
  1 1041 1.64373954E-08
  1 1042 1.66146738E-08
  1 1043 1.64938769E-08
  1 1044 1.59652929E-08
  1 1045 1.52351385E-08
  1 1046 1.48060143E-08
  1 1047 1.49622368E-08
  1 1048 1.51926099E-08
  1 1049 1.52877911E-08
  1 1050 1.49878397E-08
  1 1051 1.52462782E-08
  1 1052 1.55088830E-08
  1 1053 1.62466800E-08
  1 1054 1.63842205E-08
  1 1055 1.63258421E-08
  1 1056 1.59989184E-08
  1 1057 1.60941024E-08
  1 1058 1.58728792E-08
  1 1059 1.54796438E-08
  1 1060 1.50094522E-08
  1 1061 1.44852573E-08
  1 1062 1.42205529E-08
  1 1063 1.44170889E-08
  1 1064 1.44170889E-08
  1 1065 1.44170889E-08
  1 1066 1.44170889E-08
  1 1067 1.48759182E-08
  1 1068 1.50927365E-08
  1 1069 1.53642065E-08
  1 1070 1.54604718E-08
  1 1071 1.59928188E-08
  1 1072 1.65741184E-08
  1 1073 1.73184066E-08
  1 1074 1.76972223E-08
  1 1075 1.71251596E-08
  1 1076 1.70829588E-08
  1 1077 1.66900147E-08
  1 1078 1.65963676E-08
  1 1079 1.65336721E-08
  1 1080 1.68072155E-08
  1 1081 1.75626844E-08
  1 1082 1.80767382E-08
  1 1083 1.85248257E-08
  1 1084 1.88829049E-08
  1 1085 1.82740755E-08
  1 1086 1.77011611E-08
  1 1087 1.71914752E-08
  1 1088 1.62524293E-08
  1 1089 1.58413929E-08
  1 1090 1.60404797E-08
  1 1091 1.62980617E-08
  1 1092 1.69515759E-08
  1 1093 1.74931078E-08
  1 1094 1.80952446E-08
  1 1095 1.80009873E-08
  1 1096 1.78692549E-08
  1 1097 1.71853979E-08
  1 1098 1.64556430E-08
  1 1099 1.60030474E-08
  1 1100 1.54284502E-08
  1 1101 1.53534427E-08
  1 1102 1.53739402E-08
  1 1103 1.54976913E-08
  1 1104 1.54569196E-08
  1 1105 1.56472908E-08
  1 1106 1.57708042E-08
  1 1107 1.55708212E-08
  1 1108 1.51959007E-08
  1 1109 1.48499505E-08
  1 1110 1.41894761E-08
  1 1111 1.38165698E-08
  1 1112 1.38864565E-08
  1 1113 1.40729110E-08
  1 1114 1.45120307E-08
  1 1115 1.49076373E-08
  1 1116 1.58634236E-08
  1 1117 1.67391213E-08
  1 1118 1.73797381E-08
  1 1119 1.74413251E-08
  1 1120 1.68154729E-08
  1 1121 1.60695590E-08
  1 1122 1.51989217E-08
  1 1123 1.42473576E-08
  1 1124 1.37171732E-08
  1 1125 1.37187195E-08
  1 1126 1.37187195E-08
  1 1127 1.37187195E-08
  1 1128 1.37187195E-08
  1 1129 1.36807212E-08
  1 1130 1.36807212E-08
  1 1131 1.36807212E-08
  1 1132 1.36807212E-08
  1 1133 1.36807212E-08
  1 1134 1.36807212E-08
  1 1135 1.36807212E-08
  1 1136 1.36807212E-08
  1 1137 1.36807212E-08
  1 1138 1.36807212E-08
  1 1139 1.36807212E-08
  1 1140 1.36807212E-08
  1 1141 1.36807212E-08
  1 1142 1.36807212E-08
  1 1143 1.36807212E-08
  1 1144 1.36807212E-08
  1 1145 1.36807212E-08
  1 1146 1.36807212E-08
  1 1147 1.36807212E-08
  1 1148 1.36807212E-08
  1 1149 1.36807212E-08
  1 1150 1.36807212E-08
  1 1151 1.36807212E-08
  1 1152 1.36807212E-08
  1 1153 1.36807212E-08
  1 1154 1.36807212E-08
  1 1155 1.36807212E-08
  1 1156 1.36807212E-08
  1 1157 1.36807212E-08
  1 1158 1.36807212E-08
  1 1159 1.36807212E-08
  1 1160 1.36807212E-08
  1 1161 1.36807212E-08
  1 1162 1.36807212E-08
  1 1163 1.36807212E-08
  1 1164 1.36807212E-08
  1 1165 1.36807212E-08
  1 1166 1.36807212E-08
  1 1167 1.36807212E-08
  1 1168 1.36807212E-08
  1 1169 1.41320609E-08
  1 1170 1.41320609E-08
  1 1171 1.41320609E-08
  1 1172 1.41320609E-08
  1 1173 1.45932670E-08
  1 1174 1.45210115E-08
  1 1175 1.42660424E-08
  1 1176 1.41423329E-08
  1 1177 1.44788820E-08
  1 1178 1.51748826E-08
  1 1179 1.60921068E-08
  1 1180 1.64296022E-08
  1 1181 1.71617262E-08
  1 1182 1.76999995E-08
  1 1183 1.74385084E-08
  1 1184 1.70690341E-08
  1 1185 1.62505630E-08
  1 1186 1.60217390E-08
  1 1187 1.59726941E-08
  1 1188 1.62611795E-08
  1 1189 1.60863639E-08
  1 1190 1.57253980E-08
  1 1191 1.52915858E-08
  1 1192 1.51480512E-08
  1 1193 1.53289427E-08
  1 1194 1.53901383E-08
  1 1195 1.48289067E-08
  1 1196 1.49645316E-08
  1 1197 1.55253393E-08
  1 1198 1.65610519E-08
  1 1199 1.72924569E-08
  1 1200 1.68474005E-08
  1 1201 1.62805730E-08
  1 1202 1.61204519E-08
  1 1203 1.58725642E-08
  1 1204 1.56776823E-08
  1 1205 1.50273308E-08
  1 1206 1.46221413E-08
  1 1207 1.45152660E-08
  1 1208 1.46889418E-08
  1 1209 1.50361890E-08
  1 1210 1.49122290E-08
  1 1211 1.49122290E-08
  1 1212 1.49122290E-08
  1 1213 1.49122290E-08
  1 1214 1.48881523E-08
  1 1215 1.48881523E-08
  1 1216 1.48881523E-08
  1 1217 1.48881523E-08
  1 1218 1.48881523E-08
  1 1219 1.48881523E-08
  1 1220 1.48881523E-08
  1 1221 1.48881523E-08
  1 1222 1.48881523E-08
  1 1223 1.48881523E-08
  1 1224 1.48881523E-08
  1 1225 1.48881523E-08
  1 1226 1.48881523E-08
  1 1227 1.48881523E-08
  1 1228 1.48881523E-08
  1 1229 1.48881523E-08
  1 1230 1.48881523E-08
  1 1231 1.48881523E-08
  1 1232 1.48881523E-08
  1 1233 1.48881523E-08
  1 1234 1.48881523E-08
  1 1235 1.48881523E-08
  1 1236 1.48881523E-08
  1 1237 1.48881523E-08
  1 1238 1.48881523E-08
  1 1239 1.48881523E-08
  1 1240 1.48881523E-08
  1 1241 1.48881523E-08
  1 1242 1.48881523E-08
  1 1243 1.48881523E-08
  1 1244 1.48881523E-08
  1 1245 1.48881523E-08
  1 1246 1.48881523E-08
  1 1247 1.48881523E-08
  1 1248 1.48881523E-08
  1 1249 1.48881523E-08
  1 1250 1.48881523E-08
  1 1251 1.48881523E-08
  1 1252 1.48881523E-08
  1 1253 1.48881523E-08
  1 1254 1.51669756E-08
  1 1255 1.51669756E-08
  1 1256 1.51669756E-08
  1 1257 1.51669756E-08
  1 1258 1.56914630E-08
  1 1259 1.63208850E-08
  1 1260 1.67159042E-08
  1 1261 1.66608410E-08
  1 1262 1.64872481E-08
  1 1263 1.67761756E-08
  1 1264 1.66399474E-08
  1 1265 1.65124877E-08
  1 1266 1.63051773E-08
  1 1267 1.60328624E-08
  1 1268 1.66109036E-08
  1 1269 1.76134605E-08
  1 1270 1.83898702E-08
  1 1271 1.88495023E-08
  1 1272 1.87080255E-08
  1 1273 1.82051855E-08
  1 1274 1.75443921E-08
  1 1275 1.68037862E-08
  1 1276 1.65551411E-08
  1 1277 1.70286995E-08
  1 1278 1.71796511E-08
  1 1279 1.74527397E-08
  1 1280 1.76505377E-08
  1 1281 1.79857118E-08
  1 1282 1.80379118E-08
  1 1283 1.78074710E-08
  1 1284 1.76973173E-08
  1 1285 1.69510158E-08
  1 1286 1.60027325E-08
  1 1287 1.52208535E-08
  1 1288 1.50227383E-08
  1 1289 1.51160296E-08