# File generated by Flopy version 3.5.0 on 03/06/2024 at 10:48:00.
BEGIN options
END options

BEGIN griddata
  icelltype
    CONSTANT  0
  k
    INTERNAL  FACTOR  1.0
    5.46749328E-06  7.35857309E-06  6.99235079E-06  6.34982284E-06  6.00681330E-06  6.07182009E-06  6.41648751E-06  6.75900753E-06  7.53369688E-06  9.39463923E-06  1.26152097E-05  1.61673794E-05  1.86774993E-05  1.89724267E-05  2.10534125E-05  2.64362389E-05  2.48619837E-05  2.06363784E-05  1.96016341E-05  1.68286291E-05
    1.57741742E-05  1.87740070E-05  1.97831969E-05  2.07269515E-05  2.54197618E-05  2.65231364E-05  2.65126376E-05  2.90408045E-05  2.74930010E-05  2.54904261E-05  2.43906441E-05  2.31482968E-05  3.05734681E-05  4.45021205E-05  4.75978955E-05  6.51406508E-05  1.11954742E-04  1.22052222E-04  1.24888311E-04  1.57833918E-04
    1.42486279E-04  1.12782208E-04  1.20855947E-04  1.40461408E-04  1.56116571E-04  1.55326980E-04  1.31140808E-04  1.08777667E-04  7.87859670E-05  5.75261652E-05  5.99903868E-05  5.19007139E-05  3.27551070E-05  3.58262996E-05  4.97426792E-05  4.24665825E-05  4.27123566E-05  6.55003712E-05  8.10867066E-05  8.87638333E-05
    1.11069559E-04  1.31543943E-04  1.38600483E-04  1.23242500E-04  1.06123652E-04  1.07870224E-04  9.97581785E-05  9.40594813E-05  1.13675330E-04  9.67826670E-05  6.45391079E-05  7.52081695E-05  8.98657433E-05  6.17795383E-05  4.59638375E-05  4.09572837E-05  3.16117053E-05  2.60951086E-05  2.20802066E-05  1.74576016E-05
    1.54126536E-05  1.28555236E-05  1.03452175E-05  9.94769220E-06  9.02628249E-06  8.27618495E-06  9.10282783E-06  8.13074491E-06  6.89697309E-06  8.27162939E-06  9.24195404E-06  8.92920923E-06  1.07089474E-05  1.22729303E-05  1.39084777E-05  1.86186503E-05  1.74473667E-05  1.20597236E-05  1.06194248E-05  1.00066701E-05
    6.35738583E-06  6.89177685E-06  6.72490573E-06  6.07018130E-06  5.82513189E-06  5.59696427E-06  5.74344073E-06  6.35565224E-06  7.03758626E-06  8.21896408E-06  1.09453091E-05  1.40886484E-05  1.63620976E-05  1.78221019E-05  1.93374469E-05  2.38044243E-05  2.51426518E-05  2.05392558E-05  1.87535227E-05  1.64989279E-05
    1.42219350E-05  1.65549364E-05  1.96345031E-05  1.97015156E-05  2.26054131E-05  2.51326181E-05  2.40622139E-05  2.57425958E-05  2.59203590E-05  2.28733099E-05  2.19529674E-05  2.15235949E-05  2.51105749E-05  3.62630250E-05  4.12159822E-05  5.04897905E-05  9.57912966E-05  1.31377965E-04  1.21918156E-04  1.45805058E-04
    1.53345290E-04  1.16280682E-04  1.12870437E-04  1.32191882E-04  1.41975893E-04  1.45443770E-04  1.26767884E-04  9.84391112E-05  7.45585717E-05  5.62491477E-05  5.67957853E-05  5.72169247E-05  3.62772816E-05  3.11080072E-05  4.66742450E-05  4.74334276E-05  3.96374178E-05  5.60520862E-05  8.06813371E-05  8.92321759E-05
    1.08313947E-04  1.25503192E-04  1.26871210E-04  1.25724888E-04  1.17766834E-04  1.16896685E-04  1.14165546E-04  1.03346988E-04  1.17220988E-04  1.16594063E-04  7.49944696E-05  7.14666377E-05  1.01280564E-04  8.33596670E-05  5.29407202E-05  4.35689672E-05  3.39929498E-05  2.71100385E-05  2.43904804E-05  1.89112930E-05
    1.53376782E-05  1.40858657E-05  1.17973455E-05  1.05710836E-05  9.90530073E-06  8.83881492E-06  9.70329981E-06  1.01690321E-05  8.16890116E-06  8.30743501E-06  9.90096586E-06  9.70951073E-06  1.09190882E-05  1.33491960E-05  1.47152707E-05  1.94308206E-05  2.17242356E-05  1.45596754E-05  1.10266892E-05  1.10376105E-05
    6.35238362E-06  6.42752975E-06  6.47464794E-06  5.68618827E-06  5.50466953E-06  5.25584501E-06  5.09761623E-06  5.73962069E-06  6.51936891E-06  7.19021848E-06  9.20156962E-06  1.19613326E-05  1.38922308E-05  1.58588944E-05  1.79642566E-05  2.11250567E-05  2.39830508E-05  2.05119991E-05  1.78074600E-05  1.61972176E-05
    1.35741489E-05  1.44295057E-05  1.86784287E-05  1.95749280E-05  2.01204747E-05  2.28694613E-05  2.22614181E-05  2.24598373E-05  2.41002158E-05  2.13270024E-05  1.91402728E-05  1.93470309E-05  2.13388159E-05  2.90976933E-05  3.61133511E-05  4.14104907E-05  7.65703689E-05  1.35088533E-04  1.26781097E-04  1.28065193E-04
    1.51211968E-04  1.23350619E-04  1.07228909E-04  1.25603969E-04  1.32803170E-04  1.30570596E-04  1.20878330E-04  9.24429392E-05  6.88446820E-05  5.49390949E-05  5.45131892E-05  6.04481920E-05  4.23167675E-05  2.86536664E-05  3.92032788E-05  5.06645965E-05  4.01980800E-05  4.70822344E-05  7.55625808E-05  8.97238532E-05
    1.04015034E-04  1.22302478E-04  1.17823715E-04  1.19039254E-04  1.27935686E-04  1.29428724E-04  1.26604397E-04  1.13588849E-04  1.17161053E-04  1.29566297E-04  9.21520069E-05  7.09485582E-05  1.00576394E-04  1.07243338E-04  6.45047805E-05  4.58931433E-05  3.65728343E-05  2.83130784E-05  2.63558992E-05  2.17441343E-05
    1.57143348E-05  1.42239425E-05  1.31633685E-05  1.13992536E-05  1.07194516E-05  9.75889509E-06  1.01489591E-05  1.19103514E-05  1.01995546E-05  8.62699105E-06  9.95844122E-06  1.06685987E-05  1.14808232E-05  1.46351155E-05  1.65622140E-05  2.00130429E-05  2.52828776E-05  1.87015640E-05  1.20204651E-05  1.17863787E-05
    6.86658979E-06  6.13670338E-06  6.30387973E-06  5.43400942E-06  5.14851951E-06  5.07503375E-06  4.71161498E-06  5.14271776E-06  6.08385620E-06  6.51677983E-06  7.76118221E-06  1.01457757E-05  1.18931703E-05  1.36152292E-05  1.66753992E-05  1.92205009E-05  2.18714275E-05  2.03496327E-05  1.71735972E-05  1.58889803E-05
    1.37642550E-05  1.31426284E-05  1.69659363E-05  1.96701814E-05  1.85565244E-05  2.00061768E-05  2.06599037E-05  1.98771447E-05  2.17724826E-05  2.05688990E-05  1.70007827E-05  1.66424756E-05  1.83964179E-05  2.36223847E-05  3.13249725E-05  3.61409068E-05  5.99474388E-05  1.26393646E-04  1.37579921E-04  1.14432715E-04
    1.34476004E-04  1.29286058E-04  1.05469990E-04  1.18868401E-04  1.29106990E-04  1.17028214E-04  1.10463434E-04  8.99259635E-05  6.47017287E-05  5.26987381E-05  5.28616021E-05  6.12072014E-05  4.94289962E-05  2.90306961E-05  3.14706520E-05  4.88391189E-05  4.36600024E-05  4.12361438E-05  6.59284637E-05  8.87404647E-05
    9.88471737E-05  1.18557919E-04  1.14900186E-04  1.09138734E-04  1.29933797E-04  1.44533044E-04  1.38127359E-04  1.22204774E-04  1.16065203E-04  1.32209422E-04  1.12873724E-04  7.72825739E-05  9.30352844E-05  1.23097038E-04  8.12343363E-05  4.90357079E-05  3.87759951E-05  3.02531746E-05  2.77632699E-05  2.53954182E-05
    1.72787462E-05  1.37323820E-05  1.37509244E-05  1.24213911E-05  1.14524058E-05  1.09159105E-05  1.08094541E-05  1.29370502E-05  1.26748289E-05  9.60530694E-06  9.68350783E-06  1.13746663E-05  1.24775639E-05  1.60052193E-05  1.94393694E-05  2.14095110E-05  2.73166280E-05  2.41503888E-05  1.42350544E-05  1.23852981E-05
    7.84185168E-06  6.15707818E-06  6.20322448E-06  5.42491038E-06  4.91272106E-06  5.04193972E-06  4.68216838E-06  4.77902092E-06  5.79409663E-06  6.25967855E-06  6.84207960E-06  8.83746487E-06  1.06495685E-05  1.19099051E-05  1.53691591E-05  1.83567882E-05  1.99637630E-05  1.98670434E-05  1.71483623E-05  1.58636906E-05
    1.46419257E-05  1.30986885E-05  1.53251017E-05  1.92940403E-05  1.80071213E-05  1.73814187E-05  1.88239921E-05  1.82042245E-05  1.93076483E-05  1.99571389E-05  1.59825248E-05  1.41232470E-05  1.56839962E-05  1.97026360E-05  2.68350388E-05  3.28152527E-05  4.82384024E-05  1.06551656E-04  1.46870516E-04  1.09642641E-04
    1.11810938E-04  1.27569717E-04  1.07747735E-04  1.12119663E-04  1.28057120E-04  1.09417652E-04  9.71221406E-05  8.76668708E-05  6.41050664E-05  5.02972673E-05  5.09567364E-05  5.99950596E-05  5.53259587E-05  3.20326496E-05  2.62879855E-05  4.21340122E-05  4.79229441E-05  3.95072386E-05  5.50112683E-05  8.39945485E-05
    9.39188757E-05  1.11858001E-04  1.16852931E-04  1.03019003E-04  1.22313074E-04  1.56322804E-04  1.50879626E-04  1.27749000E-04  1.14498895E-04  1.26842728E-04  1.29991764E-04  9.17682306E-05  8.72109500E-05  1.23468235E-04  1.00079256E-04  5.44054583E-05  4.02945836E-05  3.29990637E-05  2.91352077E-05  2.88156732E-05
    2.03550427E-05  1.35344145E-05  1.32880619E-05  1.33378491E-05  1.22265470E-05  1.20622128E-05  1.18852624E-05  1.34250088E-05  1.48216137E-05  1.14086365E-05  9.63902914E-06  1.15404699E-05  1.37664235E-05  1.75212330E-05  2.29363175E-05  2.44073358E-05  2.84772429E-05  2.96520457E-05  1.82762089E-05  1.33695220E-05
    8.97079694E-06  6.55456335E-06  6.14718205E-06  5.60693619E-06  4.88747215E-06  5.10068429E-06  4.97008052E-06  4.73419580E-06  5.64444513E-06  6.31808489E-06  6.43776955E-06  7.97177777E-06  1.00274275E-05  1.10973126E-05  1.41760647E-05  1.82479554E-05  1.91300743E-05  1.91663917E-05  1.76615917E-05  1.64339440E-05
    1.59683860E-05  1.43712934E-05  1.45842918E-05  1.82392213E-05  1.81020270E-05  1.56865906E-05  1.67541101E-05  1.71961849E-05  1.73026235E-05  1.89102081E-05  1.59355210E-05  1.24608937E-05  1.31524297E-05  1.67851070E-05  2.30163972E-05  3.00578487E-05  4.08411064E-05  8.35568868E-05  1.44535696E-04  1.13232048E-04
    9.34221304E-05  1.15607983E-04  1.11896730E-04  1.07072371E-04  1.25752393E-04  1.08656785E-04  8.54295077E-05  8.25163689E-05  6.70303595E-05  4.95832359E-05  4.83490163E-05  5.72583162E-05  5.81148634E-05  3.67196366E-05  2.42840420E-05  3.41573758E-05  4.97980838E-05  4.16981931E-05  4.64478544E-05  7.46640079E-05
    8.93154227E-05  1.02607209E-04  1.19230498E-04  1.04234341E-04  1.10870748E-04  1.56802236E-04  1.64609379E-04  1.31516147E-04  1.11762775E-04  1.18117261E-04  1.36785253E-04  1.12322386E-04  8.84761206E-05  1.12461631E-04  1.13470738E-04  6.27844003E-05  4.16120716E-05  3.60141519E-05  3.12338069E-05  3.11796235E-05
    2.45863438E-05  1.43793085E-05  1.22860164E-05  1.36683699E-05  1.31430298E-05  1.30070623E-05  1.32660843E-05  1.38940481E-05  1.59390374E-05  1.38085868E-05  1.03209832E-05  1.13620669E-05  1.49541643E-05  1.93130490E-05  2.63805356E-05  2.91911314E-05  3.02778247E-05  3.38449955E-05  2.44016863E-05  1.54788806E-05
    9.78944314E-06  7.30689983E-06  6.15360379E-06  5.82111435E-06  5.05344065E-06  5.18349306E-06  5.40847977E-06  4.96631560E-06  5.57702672E-06  6.47412428E-06  6.37903234E-06  7.36695007E-06  9.60654416E-06  1.08912768E-05  1.32671369E-05  1.82145085E-05  1.94439481E-05  1.86542684E-05  1.82972559E-05  1.75910053E-05
    1.74973146E-05  1.66872553E-05  1.51006702E-05  1.69969317E-05  1.81823531E-05  1.50950267E-05  1.49009534E-05  1.64114089E-05  1.61073025E-05  1.73562044E-05  1.62733644E-05  1.18884520E-05  1.11413475E-05  1.43556218E-05  2.00338851E-05  2.72598752E-05  3.60795351E-05  6.42290953E-05  1.26682050E-04  1.20370350E-04
    8.40211511E-05  9.81816071E-05  1.13727489E-04  1.05296519E-04  1.20106914E-04  1.12449401E-04  7.91198520E-05  7.42303586E-05  7.12246550E-05  5.22656482E-05  4.58095602E-05  5.31548267E-05  5.74035723E-05  4.13698790E-05  2.50404110E-05  2.81926487E-05  4.72927813E-05  4.65749277E-05  4.20904355E-05  6.29472344E-05
    8.38744279E-05  9.31605590E-05  1.17076543E-04  1.12266985E-04  1.03085364E-04  1.43805635E-04  1.74143306E-04  1.36297370E-04  1.07803182E-04  1.09095876E-04  1.32699583E-04  1.31897005E-04  9.82920668E-05  1.00500426E-04  1.14675016E-04  7.32024627E-05  4.38316268E-05  3.85437332E-05  3.44485583E-05  3.26530630E-05
    2.87244020E-05  1.66273341E-05  1.15942006E-05  1.31847811E-05  1.40973725E-05  1.37753104E-05  1.45528630E-05  1.47066875E-05  1.60892085E-05  1.60364315E-05  1.19999303E-05  1.14140498E-05  1.56598218E-05  2.13375663E-05  2.92912392E-05  3.50235000E-05  3.39952342E-05  3.66903301E-05  3.18993421E-05  1.95394241E-05
    1.00586610E-05  8.24433503E-06  6.28285948E-06  5.91955267E-06  5.31805516E-06  5.23469392E-06  5.74259290E-06  5.34131431E-06  5.49842875E-06  6.45673288E-06  6.39005010E-06  6.82904006E-06  8.93407246E-06  1.06311018E-05  1.24644108E-05  1.75016923E-05  2.01381649E-05  1.85537815E-05  1.85385116E-05  1.88180486E-05
    1.89454640E-05  1.92951344E-05  1.67474527E-05  1.61833235E-05  1.76828926E-05  1.52832975E-05  1.37038018E-05  1.55182390E-05  1.56856952E-05  1.57402474E-05  1.62115665E-05  1.22615111E-05  9.95061288E-06  1.22214702E-05  1.76751429E-05  2.44804766E-05  3.23877153E-05  5.05030378E-05  1.00240236E-04  1.22804127E-04
    8.34840148E-05  8.29141076E-05  1.09676852E-04  1.06787580E-04  1.12369749E-04  1.16267534E-04  7.95461121E-05  6.57686162E-05  7.28982289E-05  5.89632025E-05  4.49850767E-05  4.81463794E-05  5.40126771E-05  4.42285311E-05  2.77350012E-05  2.53348432E-05  4.17364974E-05  5.14569953E-05  4.20885681E-05  5.25146474E-05
    7.64036521E-05  8.55003891E-05  1.08810151E-04  1.22448542E-04  1.03176939E-04  1.24424506E-04  1.71486088E-04  1.43382716E-04  1.04249506E-04  1.00694332E-04  1.22551556E-04  1.41537502E-04  1.14271931E-04  9.47528870E-05  1.05226331E-04  8.22412686E-05  4.79816487E-05  4.03662847E-05  3.84551651E-05  3.41924773E-05
    3.13293360E-05  2.00823656E-05  1.18433632E-05  1.22423038E-05  1.47534385E-05  1.45432405E-05  1.53328915E-05  1.58015759E-05  1.59613245E-05  1.72246050E-05  1.45665844E-05  1.22907438E-05  1.59220937E-05  2.32343399E-05  3.16749196E-05  4.03488226E-05  4.00202392E-05  3.96215153E-05  3.91071255E-05  2.61534336E-05
    1.00426188E-05  9.05297855E-06  6.60813379E-06  5.89668892E-06  5.58963765E-06  5.28731177E-06  5.80968830E-06  5.68978927E-06  5.39310123E-06  6.13426396E-06  6.23254366E-06  6.26112656E-06  7.88062291E-06  9.84159813E-06  1.14144049E-05  1.58101921E-05  2.00634108E-05  1.86619426E-05  1.81718938E-05  1.94035993E-05
    1.99630563E-05  2.12079359E-05  1.90136228E-05  1.60295570E-05  1.65602421E-05  1.56193842E-05  1.32466081E-05  1.45004832E-05  1.57137735E-05  1.45861302E-05  1.53051988E-05  1.31283684E-05  9.65872894E-06  1.05031834E-05  1.55619346E-05  2.19640177E-05  2.88808684E-05  4.12032567E-05  7.53029324E-05  1.14061292E-04
    8.88737875E-05  7.44013710E-05  1.00279151E-04  1.09555018E-04  1.05599826E-04  1.15709791E-04  8.59638825E-05  6.06536868E-05  6.95908161E-05  6.81540278E-05  4.74781415E-05  4.34109857E-05  4.90471275E-05  4.46647352E-05  3.11871384E-05  2.53118878E-05  3.62569862E-05  5.31480345E-05  4.54636009E-05  4.58265037E-05
    6.72443574E-05  7.99992099E-05  9.73824966E-05  1.27154910E-04  1.11312106E-04  1.08259917E-04  1.53720425E-04  1.50144370E-04  1.03549437E-04  9.31812230E-05  1.11250665E-04  1.38061585E-04  1.29258534E-04  9.69090293E-05  9.31752312E-05  8.57400380E-05  5.42488797E-05  4.21543757E-05  4.23135448E-05  3.66845661E-05
    3.21301487E-05  2.37279892E-05  1.33334898E-05  1.15303476E-05  1.47958955E-05  1.54094020E-05  1.55436699E-05  1.67167349E-05  1.61786157E-05  1.72612243E-05  1.73005588E-05  1.43923579E-05  1.62794565E-05  2.44836023E-05  3.37622486E-05  4.38561082E-05  4.73847594E-05  4.43438787E-05  4.49082699E-05  3.49521724E-05
    1.03059671E-05  9.47886131E-06  7.15273118E-06  5.90333854E-06  5.81508036E-06  5.48063571E-06  5.72190412E-06  5.88680097E-06  5.37387738E-06  5.66953610E-06  5.90427058E-06  5.74139565E-06  6.74118911E-06  8.64328194E-06  1.01508951E-05  1.36049829E-05  1.86847500E-05  1.87028426E-05  1.75435540E-05  1.91502237E-05
    2.04325642E-05  2.19750509E-05  2.11475196E-05  1.65686069E-05  1.53243513E-05  1.55622619E-05  1.33805200E-05  1.36272267E-05  1.57811826E-05  1.41824026E-05  1.38589893E-05  1.37790088E-05  1.02272436E-05  9.42487510E-06  1.34970704E-05  1.97438128E-05  2.54635387E-05  3.45151336E-05  5.68500536E-05  9.58746119E-05
    9.47367903E-05  7.34388228E-05  8.99538061E-05  1.10553905E-04  1.02047521E-04  1.09815057E-04  9.54495500E-05  6.10654411E-05  6.28756998E-05  7.54083325E-05  5.41786421E-05  4.04942820E-05  4.35387910E-05  4.32983270E-05  3.41747284E-05  2.74275224E-05  3.30283567E-05  5.06745544E-05  5.00302550E-05  4.33931125E-05
    5.83794995E-05  7.57821420E-05  8.71308856E-05  1.21286102E-04  1.23302234E-04  1.00616492E-04  1.27879432E-04  1.50321845E-04  1.07215466E-04  8.74195330E-05  1.01029539E-04  1.26227403E-04  1.34325064E-04  1.04425560E-04  8.53034231E-05  8.27685701E-05  6.13538992E-05  4.50000124E-05  4.51673149E-05  4.03228682E-05
    3.22646317E-05  2.61290977E-05  1.60118308E-05  1.16313239E-05  1.43015643E-05  1.62351692E-05  1.55019473E-05  1.69337779E-05  1.68930417E-05  1.68931663E-05  1.91167118E-05  1.77177032E-05  1.74491998E-05  2.48909190E-05  3.55066893E-05  4.55512649E-05  5.38393271E-05  5.16826378E-05  5.00330521E-05  4.41734824E-05
    1.13870007E-05  9.59460169E-06  7.80522601E-06  6.10992710E-06  5.99008390E-06  5.90513331E-06  5.75329966E-06  5.93543285E-06  5.53091169E-06  5.35638308E-06  5.60830547E-06  5.42647860E-06  5.90275645E-06  7.48860184E-06  9.03578047E-06  1.16816164E-05  1.65668810E-05  1.85757104E-05  1.72891983E-05  1.85575980E-05
    2.06264933E-05  2.20428443E-05  2.24621072E-05  1.78169521E-05  1.46603877E-05  1.50895064E-05  1.39396856E-05  1.32498532E-05  1.56624291E-05  1.45566957E-05  1.26059034E-05  1.36056061E-05  1.15086638E-05  9.17415238E-06  1.16360677E-05  1.76249980E-05  2.24391056E-05  2.92124254E-05  4.46939025E-05  7.59866562E-05
    9.48723867E-05  7.83510232E-05  8.32176333E-05  1.07986388E-04  1.01935009E-04  1.01590341E-04  1.03158121E-04  6.78107077E-05  5.69322611E-05  7.57802173E-05  6.43238665E-05  4.07207443E-05  3.85836306E-05  4.11066531E-05  3.61499718E-05  3.07448089E-05  3.26791763E-05  4.62413500E-05  5.27665773E-05  4.44163190E-05
    5.19356596E-05  7.18364077E-05  8.05914360E-05  1.07323339E-04  1.30655635E-04  1.02004820E-04  1.04738017E-04  1.39007142E-04  1.14300422E-04  8.48496457E-05  9.22219914E-05  1.12716973E-04  1.26657243E-04  1.11204285E-04  8.38440842E-05  7.68503354E-05  6.67694174E-05  4.95843098E-05  4.70699601E-05  4.44529066E-05
    3.31887409E-05  2.67603289E-05  1.92463362E-05  1.28953180E-05  1.37917576E-05  1.67262677E-05  1.55847826E-05  1.63736329E-05  1.77677457E-05  1.70035881E-05  1.95593731E-05  2.14790221E-05  1.99724188E-05  2.49207363E-05  3.64591606E-05  4.64348446E-05  5.74003365E-05  6.07712854E-05  5.64136422E-05  5.19278481E-05
    1.36260924E-05  9.78809784E-06  8.37105201E-06  6.58271152E-06  6.16873883E-06  6.46597935E-06  6.09024840E-06  5.97395541E-06  5.80899353E-06  5.37499332E-06  5.53997743E-06  5.40635548E-06  5.54599304E-06  6.70353254E-06  8.27820491E-06  1.04929390E-05  1.46836671E-05  1.82473259E-05  1.78077334E-05  1.83173897E-05
    2.08426586E-05  2.21728767E-05  2.28358360E-05  1.95073176E-05  1.50446444E-05  1.46966506E-05  1.47482721E-05  1.36058660E-05  1.54727249E-05  1.55123191E-05  1.21276480E-05  1.26570611E-05  1.30073800E-05  9.89434769E-06  1.03260301E-05  1.54344448E-05  1.99838349E-05  2.48808525E-05  3.67923942E-05  6.03640500E-05
    8.72299034E-05  8.51235875E-05  8.20674051E-05  1.03033104E-04  1.03740649E-04  9.49698437E-05  1.05059239E-04  8.01437034E-05  5.52660927E-05  6.89833881E-05  7.40539990E-05  4.49499748E-05  3.53182537E-05  3.87619212E-05  3.74700498E-05  3.41765516E-05  3.48397944E-05  4.28603524E-05  5.18985584E-05  4.71386660E-05
    4.89325130E-05  6.79835174E-05  7.79623521E-05  9.23496778E-05  1.25741133E-04  1.09231769E-04  9.06152146E-05  1.18698121E-04  1.20536849E-04  8.66062158E-05  8.49426956E-05  1.01042414E-04  1.11920218E-04  1.10522715E-04  8.72827207E-05  7.26248777E-05  6.85911458E-05  5.54777862E-05  4.89735208E-05  4.79728058E-05
    3.57467816E-05  2.66111805E-05  2.18862051E-05  1.54204129E-05  1.39126554E-05  1.67416342E-05  1.59445462E-05  1.54954971E-05  1.82307807E-05  1.80595759E-05  1.93316429E-05  2.41685398E-05  2.38587568E-05  2.54272306E-05  3.62270554E-05  4.73188641E-05  5.81898026E-05  6.88665251E-05  6.55148092E-05  5.82611011E-05
    1.69185884E-05  1.04877782E-05  8.76944413E-06  7.27387922E-06  6.44459309E-06  6.94425871E-06  6.71461260E-06  6.16345119E-06  6.07850202E-06  5.72001572E-06  5.77607133E-06  5.68021246E-06  5.64693154E-06  6.36834728E-06  7.82281651E-06  9.97226793E-06  1.35450395E-05  1.77636399E-05  1.89596061E-05  1.88629036E-05
    2.11614216E-05  2.27302954E-05  2.28378882E-05  2.10177016E-05  1.65531987E-05  1.49810678E-05  1.56468999E-05  1.47041185E-05  1.55440914E-05  1.66941313E-05  1.26780350E-05  1.16107304E-05  1.38872914E-05  1.16075896E-05  9.85715353E-06  1.32783678E-05  1.79483547E-05  2.15631806E-05  3.13100779E-05  5.03404346E-05
    7.57505156E-05  8.81685855E-05  8.55845523E-05  9.87836837E-05  1.05422648E-04  9.21201413E-05  1.01282880E-04  9.46742290E-05  5.97347377E-05  6.00140004E-05  7.73301392E-05  5.31753453E-05  3.47595915E-05  3.67063352E-05  3.87944515E-05  3.70608910E-05  3.83797788E-05  4.21677921E-05  4.86083869E-05  4.91214677E-05
    4.91211237E-05  6.50115405E-05  7.80107985E-05  8.16312395E-05  1.09540996E-04  1.15445204E-04  8.64180101E-05  9.77746721E-05  1.19959384E-04  9.24413581E-05  7.98308977E-05  9.14643255E-05  9.75329257E-05  1.00928264E-04  9.12755273E-05  7.27046281E-05  6.75409104E-05  6.09284051E-05  5.18503295E-05  5.02555478E-05
    3.98801102E-05  2.72588760E-05  2.32091366E-05  1.88053985E-05  1.51551911E-05  1.65450433E-05  1.64577901E-05  1.48860507E-05  1.79698949E-05  1.99662728E-05  1.96144449E-05  2.48118226E-05  2.80874671E-05  2.70839691E-05  3.50593318E-05  4.81250101E-05  5.81290272E-05  7.31117289E-05  7.67740524E-05  6.52129411E-05
    2.03892134E-05  1.19233348E-05  9.13622709E-06  8.03723026E-06  6.90370499E-06  7.20462164E-06  7.39231096E-06  6.54715732E-06  6.26831981E-06  6.20091606E-06  6.25570490E-06  6.16551417E-06  6.05752040E-06  6.38010181E-06  7.50950564E-06  9.70486717E-06  1.29725462E-05  1.71951188E-05  2.00407047E-05  2.01260739E-05
    2.15203639E-05  2.34485559E-05  2.30672365E-05  2.18667151E-05  1.87149574E-05  1.62434362E-05  1.66221807E-05  1.62465293E-05  1.61164665E-05  1.77669886E-05  1.42455247E-05  1.11637400E-05  1.36767041E-05  1.39156891E-05  1.03892860E-05  1.15127329E-05  1.60258781E-05  1.92853638E-05  2.72332051E-05  4.45612462E-05
    6.58303067E-05  8.43244320E-05  8.99835569E-05  9.75470442E-05  1.06045189E-04  9.30579420E-05  9.55222109E-05  1.05730025E-04  7.09017762E-05  5.41856711E-05  7.16301012E-05  6.32238650E-05  3.77638771E-05  3.55262475E-05  4.04382110E-05  3.96332192E-05  4.17157600E-05  4.41276337E-05  4.56922671E-05  4.86239108E-05
    5.10946709E-05  6.39330596E-05  7.92001806E-05  7.65914210E-05  9.04050785E-05  1.13005815E-04  8.99331722E-05  8.32364544E-05  1.10065723E-04  9.96644354E-05  7.76460374E-05  8.31010227E-05  8.70257222E-05  8.75096656E-05  9.06732490E-05  7.69344045E-05  6.64198896E-05  6.38638934E-05  5.57821969E-05  5.17496064E-05
    4.46997869E-05  2.98919701E-05  2.37937846E-05  2.20163243E-05  1.77154884E-05  1.67083150E-05  1.69031350E-05  1.48810395E-05  1.72585613E-05  2.20927280E-05  2.12747010E-05  2.40795124E-05  3.06823605E-05  2.99021711E-05  3.38414775E-05  4.81236846E-05  5.90359014E-05  7.33387233E-05  8.68734116E-05  7.48863333E-05
    2.27238999E-05  1.39474797E-05  9.71949084E-06  8.69182159E-06  7.54949825E-06  7.31022718E-06  7.79795693E-06  7.02274712E-06  6.37341944E-06  6.52244206E-06  6.78163445E-06  6.68801342E-06  6.54671289E-06  6.52684651E-06  7.17313183E-06  9.20823304E-06  1.23976434E-05  1.63352330E-05  2.01191471E-05  2.13792933E-05
    2.17210856E-05  2.36282082E-05  2.34839289E-05  2.20395830E-05  2.05130820E-05  1.82727380E-05  1.77615125E-05  1.76692869E-05  1.70542951E-05  1.85578590E-05  1.65189349E-05  1.16934024E-05  1.28012401E-05  1.57846074E-05  1.19433674E-05  1.04684137E-05  1.40595777E-05  1.78155524E-05  2.42520286E-05  4.10603778E-05
    6.01380143E-05  7.59894485E-05  8.99561493E-05  9.89856219E-05  1.06450941E-04  9.64873467E-05  9.14821209E-05  1.09264956E-04  8.72464856E-05  5.42509103E-05  6.13112855E-05  7.01370477E-05  4.48578363E-05  3.60692439E-05  4.22580442E-05  4.26594120E-05  4.38065214E-05  4.73538259E-05  4.51808998E-05  4.61744026E-05
    5.25702359E-05  6.49771035E-05  8.06254856E-05  7.62040074E-05  7.55364656E-05  1.00250860E-04  9.64667033E-05  7.74875216E-05  9.50033597E-05  1.03162478E-04  7.83830497E-05  7.55881835E-05  8.00475136E-05  7.62940748E-05  8.37568199E-05  8.24380473E-05  6.78124963E-05  6.38178476E-05  5.95874410E-05  5.35045575E-05
    4.90621454E-05  3.50113232E-05  2.50872156E-05  2.41176003E-05  2.12682203E-05  1.78002415E-05  1.72488546E-05  1.54967081E-05  1.67223772E-05  2.36175874E-05  2.45805024E-05  2.35944212E-05  3.03291719E-05  3.28735869E-05  3.34759766E-05  4.68241799E-05  6.13298860E-05  7.22601607E-05  9.16433538E-05  8.73398521E-05
    2.34208330E-05  1.59205444E-05  1.06982246E-05  9.18592986E-06  8.26074100E-06  7.42560647E-06  7.77778675E-06  7.44046999E-06  6.45244162E-06  6.53023783E-06  7.11598700E-06  7.08053272E-06  6.92085518E-06  6.63202546E-06  6.73991804E-06  8.29958863E-06  1.14092192E-05  1.49202497E-05  1.87484917E-05  2.15371124E-05
    2.14865842E-05  2.27501668E-05  2.35413603E-05  2.17697615E-05  2.10311222E-05  2.03325439E-05  1.91050831E-05  1.85039643E-05  1.78283104E-05  1.89810789E-05  1.88471320E-05  1.33221526E-05  1.20925721E-05  1.61912083E-05  1.42190441E-05  1.03007869E-05  1.22063960E-05  1.67058531E-05  2.23428860E-05  3.82966478E-05
    5.84237138E-05  6.82865098E-05  8.29115656E-05  9.97137439E-05  1.08098144E-04  1.00996287E-04  9.07636943E-05  1.06271774E-04  1.03822116E-04  6.11916941E-05  5.28067542E-05  6.96312268E-05  5.53865247E-05  3.93181540E-05  4.40085310E-05  4.65946312E-05  4.49820793E-05  4.97260564E-05  4.74944762E-05  4.40029694E-05
    5.17163955E-05  6.69352646E-05  8.22031908E-05  7.84516793E-05  6.72177128E-05  8.31627004E-05  9.94426134E-05  7.97724768E-05  8.16595343E-05  9.86438957E-05  8.04848320E-05  6.93503982E-05  7.45645169E-05  6.99567174E-05  7.39100969E-05  8.46662526E-05  7.24851444E-05  6.25493412E-05  6.14468762E-05  5.61390081E-05
    5.25217401E-05  4.22480059E-05  2.85358882E-05  2.53567273E-05  2.48176167E-05  2.01379856E-05  1.77998825E-05  1.65337902E-05  1.68853760E-05  2.42141528E-05  2.90053996E-05  2.46729142E-05  2.79046605E-05  3.42046994E-05  3.42774384E-05  4.46628493E-05  6.38933222E-05  7.29368217E-05  9.01748524E-05  9.92348139E-05
    2.33689237E-05  1.70348979E-05  1.20287726E-05  9.66759343E-06  8.85649863E-06  7.66629416E-06  7.48463685E-06  7.67505694E-06  6.65997423E-06  6.40080832E-06  7.17632957E-06  7.33445209E-06  7.17233305E-06  6.70532497E-06  6.34001583E-06  7.24595803E-06  1.00886804E-05  1.32264990E-05  1.64572854E-05  2.01245707E-05
    2.07182463E-05  2.10600415E-05  2.28756205E-05  2.14438961E-05  2.03668807E-05  2.15016349E-05  2.06773317E-05  1.88486640E-05  1.79417762E-05  1.89454516E-05  2.05118142E-05  1.59589276E-05  1.21774409E-05  1.52290425E-05  1.63492832E-05  1.10564160E-05  1.08095774E-05  1.55366871E-05  2.14133449E-05  3.56423351E-05
    5.86703851E-05  6.46327948E-05  7.18555080E-05  9.51199437E-05  1.11034828E-04  1.06158294E-04  9.30531533E-05  1.00936923E-04  1.14072444E-04  7.47466590E-05  4.98230716E-05  6.30167102E-05  6.62346521E-05  4.61982924E-05  4.58906601E-05  5.10169211E-05  4.64866533E-05  4.98423968E-05  5.15176587E-05  4.42222048E-05
    4.88391572E-05  6.74158938E-05  8.39346565E-05  8.13034809E-05  6.45352223E-05  6.87539549E-05  9.44607228E-05  8.72238777E-05  7.43824510E-05  8.70887877E-05  8.07975476E-05  6.48386927E-05  6.88419822E-05  6.79550817E-05  6.59658723E-05  8.08884915E-05  7.87111684E-05  6.25099373E-05  6.05348424E-05  5.91767081E-05
    5.56883245E-05  5.02820622E-05  3.52106329E-05  2.71456852E-05  2.73125824E-05  2.35748239E-05  1.90771659E-05  1.77849918E-05  1.79536840E-05  2.43592225E-05  3.31961985E-05  2.78872661E-05  2.55499794E-05  3.27625622E-05  3.57058676E-05  4.27386656E-05  6.49242104E-05  7.67204746E-05  8.59996548E-05  1.05175335E-04
    2.39476201E-05  1.70995462E-05  1.33449098E-05  1.03516181E-05  9.24456752E-06  8.01451049E-06  7.20131891E-06  7.65515140E-06  7.11889806E-06  6.48725009E-06  7.13033792E-06  7.58056842E-06  7.43397330E-06  6.87333841E-06  6.20774551E-06  6.47170635E-06  8.80976540E-06  1.18375602E-05  1.43039513E-05  1.78610100E-05
    1.95835063E-05  1.93337211E-05  2.16136670E-05  2.15191854E-05  1.95392678E-05  2.13118714E-05  2.23427811E-05  1.93279142E-05  1.74414929E-05  1.84156198E-05  2.11774080E-05  1.91359267E-05  1.34234988E-05  1.39840420E-05  1.72478260E-05  1.26658881E-05  1.01793376E-05  1.42092202E-05  2.11413775E-05  3.33079191E-05
    5.81752923E-05  6.55274812E-05  6.22144548E-05  8.36865736E-05  1.12592105E-04  1.12605447E-04  9.72582880E-05  9.66658448E-05  1.15119327E-04  9.20609202E-05  5.37251812E-05  5.58659898E-05  7.26683680E-05  5.69880883E-05  4.87765138E-05  5.47599886E-05  4.93320473E-05  4.82721616E-05  5.48813340E-05  4.78989466E-05
    4.62245586E-05  6.45578055E-05  8.49370498E-05  8.35233093E-05  6.54087928E-05  6.00810771E-05  8.33653862E-05  9.46100636E-05  7.40752844E-05  7.40349142E-05  7.63164315E-05  6.17513815E-05  6.25694217E-05  6.79074701E-05  6.25832722E-05  7.30414599E-05  8.25773415E-05  6.50816140E-05  5.80496099E-05  6.12416481E-05
    5.95341648E-05  5.76002152E-05  4.53523879E-05  3.12509358E-05  2.88223754E-05  2.73565593E-05  2.15792754E-05  1.93001326E-05  1.98287789E-05  2.48861285E-05  3.57924314E-05  3.29061320E-05  2.49006325E-05  2.94134127E-05  3.65414371E-05  4.19725692E-05  6.35082815E-05  8.26167038E-05  8.37868312E-05  1.02693057E-04
    2.60556242E-05  1.68227499E-05  1.41137636E-05  1.13085808E-05  9.52444872E-06  8.35010951E-06  7.11328903E-06  7.42880281E-06  7.72959131E-06  7.04562180E-06  7.26388439E-06  7.92481280E-06  7.86426345E-06  7.23117839E-06  6.46082153E-06  6.21069708E-06  7.91172368E-06  1.09892563E-05  1.29936162E-05  1.59385353E-05
    1.84370342E-05  1.81987927E-05  2.01712290E-05  2.20766023E-05  1.95446547E-05  2.02036758E-05  2.34303506E-05  2.04943959E-05  1.69020453E-05  1.74920263E-05  2.09797179E-05  2.19671695E-05  1.59533533E-05  1.34810179E-05  1.66657959E-05  1.47050550E-05  1.05079181E-05  1.30127024E-05  2.09947591E-05  3.17300391E-05