# File generated by Flopy version 3.5.0 on 03/06/2024 at 10:47:59.
BEGIN griddata
  strt
    INTERNAL  FACTOR  1.0
        15.00000000      15.00000000      15.00000000      15.00000000      15.00000000      15.00000000      15.00000000      15.00000000      15.00000000      15.00000000      15.00000000      15.00000000      15.00000000      15.00000000      15.00000000      15.00000000      15.00000000      15.00000000      15.00000000      15.00000000
        15.00000000      15.00000000      15.00000000      15.00000000      15.00000000      15.00000000      15.00000000      15.00000000      15.00000000      15.00000000      15.00000000      15.00000000      15.00000000      15.00000000      15.00000000      15.00000000      15.00000000      15.00000000      15.00000000      15.00000000
        15.00000000      15.00000000      15.00000000      15.00000000      15.00000000      15.00000000      15.00000000      15.00000000      15.00000000      15.00000000      15.00000000      15.00000000      15.00000000      15.00000000      15.00000000      15.00000000      15.00000000      15.00000000      15.00000000      15.00000000
        15.00000000      15.00000000      15.00000000      15.00000000      15.00000000      15.00000000      15.00000000      15.00000000      15.00000000      15.00000000      15.00000000      15.00000000      15.00000000      15.00000000      15.00000000      15.00000000      15.00000000      15.00000000      15.00000000      15.00000000
        15.00000000      15.00000000      15.00000000      15.00000000      15.00000000      15.00000000      15.00000000      15.00000000      15.00000000      15.00000000      15.00000000      15.00000000      15.00000000      15.00000000      15.00000000      15.00000000      15.00000000      15.00000000      15.00000000      15.00000000
        15.37869268      15.36663036      15.36145707      15.35469100      15.34400151      15.33520314      15.32429526      15.31357385      15.29201841      15.25585458      15.22424315      15.20478447      15.18882601      15.17595505      15.16122591      15.14561921      15.13623875      15.12458026      15.11081984      15.10052965
        15.09127753      15.08417322      15.08090272      15.07684035      15.07262099      15.07044864      15.06705840      15.06235289      15.05928262      15.05591837      15.05291591      15.05067211      15.04729815      15.04440699      15.04330780      15.04131315      15.04156071      15.04536459      15.04632965      15.04567494
        15.04806455      15.04997833      15.04961210      15.04953381      15.04935438      15.04960435      15.05107270      15.05212552      15.05363795      15.05545816      15.05641851      15.05916466      15.06092742      15.05698205      15.05330336      15.05312558      15.04894487      15.04318472      15.04138040      15.04056459
        15.03917652      15.03840615      15.03817405      15.03971030      15.04251524      15.04433750      15.04570645      15.04616630      15.04607515      15.04846590      15.05029073      15.04869349      15.04964617      15.05341086      15.05351172      15.05189932      15.05201976      15.05280751      15.05456822      15.05665426
        15.05797591      15.06069316      15.06405347      15.06587583      15.06745381      15.06849206      15.06833652      15.06871631      15.06751524      15.06621876      15.06706611      15.06786297      15.06661669      15.06600089      15.06579948      15.06641450      15.07004899      15.07323582      15.07417318      15.07557979
        15.72316667      15.71383700      15.70390214      15.69221294      15.67526416      15.65807486      15.63105497      15.60383417      15.57282747      15.51802432      15.45487484      15.40774328      15.37217886      15.34424294      15.31873465      15.29009385      15.26699028      15.24561377      15.22161308      15.20148779
        15.18399740      15.16978775      15.16186613      15.15498366      15.14619741      15.13954079      15.13398485      15.12635159      15.11953708      15.11300597      15.10620146      15.10100779      15.09573213      15.09015376      15.08732396      15.08488234      15.08422572      15.08871792      15.09177538      15.09119623
        15.09357216      15.09763371      15.09853769      15.09869270      15.09898545      15.09878023      15.10032844      15.10255994      15.10434648      15.10625305      15.10733153      15.10953744      15.11172526      15.10729636      15.09973618      15.09642159      15.09072691      15.08177257      15.07725045      15.07582705
        15.07409721      15.07346989      15.07358333      15.07479710      15.07810673      15.08116518      15.08299178      15.08390544      15.08417793      15.08668770      15.09001271      15.08936896      15.08914518      15.09278283      15.09383199      15.09159661      15.09049477      15.09030450      15.09154692      15.09456712
        15.09693358      15.09951816      15.10338634      15.10715122      15.11036229      15.11241159      15.11265109      15.11358041      15.11403808      15.11295598      15.11282183      15.11410349      15.11482379      15.11549793      15.11599800      15.11683930      15.12103686      15.12663900      15.12933819      15.13026766
        16.04613649      16.04460528      16.04032734      16.02756024      16.00107751      15.97354634      15.93454501      15.88941049      15.84680624      15.78206546      15.69844476      15.62360201      15.56274122      15.51297808      15.47325444      15.43482601      15.39960201      15.36837258      15.33477680      15.30532580
        15.28208958      15.26278992      15.24903439      15.23853245      15.22646973      15.21468601      15.20530900      15.19417166      15.18303630      15.17417733      15.16432306      15.15432017      15.14599682      15.13884987      15.13443227      15.13143366      15.12892901      15.13201266      15.13686804      15.13726191
        15.13845167      15.14344316      15.14628027      15.14696562      15.14794026      15.14770879      15.14855950      15.15168046      15.15397150      15.15489442      15.15509228      15.15608221      15.15791568      15.15389940      15.14390596      15.13694459      15.13125070      15.12043049      15.11204672      15.10927611
        15.10738015      15.10667654      15.10720553      15.10784590      15.11057801      15.11443243      15.11676361      15.11787376      15.11862609      15.12104714      15.12519582      15.12590395      15.12436270      15.12641885      15.12837918      15.12635220      15.12420641      15.12362386      15.12441790      15.12736990
        15.13015193      15.13262217      15.13657623      15.14118308      15.14482999      15.14784492      15.15007765      15.15265329      15.15505291      15.15540387      15.15538192      15.15704846      15.15886221      15.16006977      15.16144291      15.16275628      15.16599230      15.17156435      15.17503458      15.17618598
        16.35221445      16.35190359      16.35520426      16.35232880      16.32644759      16.28845563      16.23707859      16.17562359      16.12230028      16.05126931      15.95306268      15.85254711      15.76420596      15.68827773      15.62785446      15.57825834      15.53325169      15.49273510      15.45245334      15.41462169
        15.38388767      15.35913873      15.34042790      15.32627591      15.31236541      15.29560877      15.28104472      15.26729013      15.25237382      15.24036699      15.22837245      15.21450024      15.20241608      15.19261769      15.18514102      15.18061280      15.17628759      15.17647222      15.18162705      15.18371294
        15.18393346      15.18841265      15.19290284      15.19416970      15.19557472      15.19615238      15.19624947      15.19915398      15.20217777      15.20258717      15.20178227      15.20142654      15.20231830      15.19948729      15.18929167      15.17837505      15.17148314      15.15983760      15.14758753      15.14227932
        15.13998052      15.13900751      15.14018779      15.14111008      15.14281734      15.14663456      15.14964965      15.15098994      15.15198500      15.15406894      15.15814242      15.16034032      15.15834231      15.15801917      15.16000070      15.15890979      15.15647845      15.15552885      15.15506075      15.15647070
        15.15920129      15.16213750      15.16607748      15.17105917      15.17595921      15.18101757      15.18550692      15.18900978      15.19232421      15.19485334      15.19580691      15.19671076      15.19845046      15.20050897      15.20318244      15.20538047      15.20737876      15.21175358      15.21584426      15.21684125
        16.65696371      16.65395707      16.65255628      16.65428138      16.64116542      16.60901435      16.55146402      16.46568840      16.39260183      16.31894576      16.21730648      16.09521440      15.97739977      15.87475729      15.78928471      15.72182934      15.66526941      15.61475207      15.56881232      15.52493125
        15.48614774      15.45569617      15.43346470      15.41697199      15.40299661      15.38437180      15.36472492      15.34759058      15.32810036      15.31076627      15.29672653      15.28044920      15.26430660      15.25092206      15.24005874      15.23328641      15.22691203      15.22299389      15.22641898      15.23038778
        15.23061000      15.23329849      15.23839554      15.24045206      15.24198682      15.24369374      15.24350732      15.24526058      15.24896413      15.24965271      15.24756539      15.24582458      15.24589249      15.24447989      15.23529595      15.22130460      15.21165676      15.20045634      15.18516462      15.17581570
        15.17266911      15.17162837      15.17338055      15.17530326      15.17611986      15.17902196      15.18267685      15.18441751      15.18528257      15.18693702      15.19044885      15.19366644      15.19210845      15.18941546      15.19025138      15.19013232      15.18743798      15.18546997      15.18417612      15.18444215
        15.18685830      15.18964169      15.19367726      15.19980135      15.20620335      15.21151851      15.21613387      15.22061028      15.22542624      15.23018542      15.23286518      15.23435948      15.23699086      15.23957451      15.24162374      15.24359843      15.24490682      15.24775300      15.25154852      15.25217223
        16.96026540      16.95319591      16.94561777      16.94579676      16.93659042      16.91062092      16.86257257      16.77207796      16.67233045      16.57926450      16.47306215      16.34577673      16.20686815      16.07561494      15.95923285      15.86681385      15.79602470      15.73326229      15.67806994      15.62976856
        15.58742099      15.55402594      15.52797266      15.50851128      15.49496572      15.47883927      15.45607232      15.43365135      15.40948103      15.38651107      15.37002978      15.35256983      15.33277136      15.31560457      15.30046599      15.28897191      15.27933043      15.27159452      15.27189081      15.27690469
        15.27826595      15.27916951      15.28373706      15.28646538      15.28750475      15.28972413      15.28998209      15.29024242      15.29363328      15.29524164      15.29293525      15.29046895      15.28990325      15.28915703      15.28150139      15.26576630      15.25163094      15.23996074      15.22320940      15.21010944
        15.20588140      15.20511757      15.20712974      15.21045201      15.21135904      15.21262765      15.21615327      15.21854294      15.21931292      15.22042552      15.22287803      15.22599937      15.22552162      15.22150858      15.22013484      15.22009410      15.21735998      15.21485450      15.21354392      15.21270730
        15.21398620      15.21667047      15.22084542      15.22685156      15.23342581      15.23929939      15.24497545      15.25050820      15.25574166      15.26140458      15.26655391      15.26952272      15.27147717      15.27327838      15.27490445      15.27718123      15.27893588      15.28082761      15.28439103      15.28635937
        17.27592651      17.26252516      17.24160459      17.23289825      17.22378072      17.20003095      17.15644494      17.07017028      16.95713311      16.84484215      16.72507699      16.58862363      16.43599183      16.28567313      16.14303866      16.01846039      15.92565417      15.84772778      15.78123157      15.72854436
        15.68492714      15.65043958      15.62377986      15.60253097      15.58759035      15.57355583      15.55155757      15.52687430      15.49962190      15.46874806      15.44515867      15.42618157      15.40508479      15.38392607      15.36337669      15.34701085      15.33432997      15.32344449      15.31951628      15.32379989
        15.32693194      15.32669993      15.32913535      15.33178437      15.33218322      15.33422614      15.33554319      15.33472278      15.33693280      15.33999554      15.33859663      15.33520518      15.33349221      15.33258979      15.32671284      15.31076949      15.29178015      15.27795694      15.26137362      15.24565085
        15.23956276      15.23921589      15.24144265      15.24584093      15.24780331      15.24762823      15.25023950      15.25360009      15.25469237      15.25501957      15.25612807      15.25830068      15.25877996      15.25461040      15.25066793      15.24973141      15.24723658      15.24405327      15.24238460      15.24107182
        15.24150583      15.24416486      15.24772079      15.25279753      15.25950966      15.26611735      15.27184558      15.27713551      15.28243350      15.28856647      15.29515023      15.29959502      15.30212188      15.30426366      15.30584220      15.30757139      15.30938200      15.31081864      15.31358496      15.31598829
        17.59885785      17.58100910      17.54839288      17.52031944      17.49967583      17.47477773      17.43544656      17.35720171      17.23889496      17.11148188      16.97937012      16.83299642      16.66385984      16.49473393      16.33342347      16.17967832      16.05929621      15.96210453      15.87865234      15.81784021
        15.77655358      15.74545723      15.72141826      15.69901797      15.68122517      15.66783551      15.64802940      15.62227409      15.59326021      15.55701762      15.52444351      15.50094929      15.47747189      15.45439265      15.43051248      15.40955741      15.39237710      15.37782373      15.36950730      15.37121098
        15.37553103      15.37522293      15.37512088      15.37718817      15.37722769      15.37831835      15.38052569      15.37943325      15.37968757      15.38310775      15.38286973      15.37906883      15.37670228      15.37577027      15.37128461      15.35637348      15.33359555      15.31481544      15.29702873      15.27930278
        15.27196405      15.27294404      15.27609610      15.28112445      15.28495581      15.28478631      15.28600299      15.28996035      15.29179767      15.29129202      15.29078166      15.29116935      15.29149824      15.28812209      15.28262595      15.28004517      15.27764673      15.27389141      15.27184323      15.27069595
        15.27002006      15.27137114      15.27367239      15.27758566      15.28365318      15.28999884      15.29572542      15.30163453      15.30772208      15.31362344      15.32001385      15.32557255      15.32938609      15.33167696      15.33288185      15.33394688      15.33579169      15.33728787      15.33894371      15.34092271
        17.91500222      17.89053031      17.85624182      17.81954297      17.78206873      17.74235022      17.69928275      17.63193031      17.52059352      17.37807441      17.22523513      17.06981049      16.89238457      16.70540923      16.52696640      16.35155779      16.20317914      16.08302824      15.97406487      15.89595550
        15.86019106      15.83777665      15.81874506      15.79714817      15.77630350      15.76143164      15.74343645      15.71776658      15.68816766      15.65035160      15.60910959      15.57727444      15.54933105      15.52349348      15.49820531      15.47404643      15.45288731      15.43483077      15.42250700      15.42003997
        15.42385034      15.42441105      15.42248773      15.42306443      15.42270871      15.42243830      15.42488928      15.42441831      15.42250706      15.42493360      15.42659499      15.42367128      15.42069024      15.41932945      15.41554567      15.40221739      15.37636929      15.34970227      15.32754781      15.30808495
        15.30226396      15.30629739      15.31163246      15.31731607      15.32302307      15.32422598      15.32396845      15.32748895      15.33041943      15.32949748      15.32723302      15.32559379      15.32492483      15.32267617      15.31686787      15.31193812      15.30874759      15.30429990      15.30082560      15.29886446
        15.29704405      15.29730841      15.29963594      15.30252444      15.30715996      15.31340693      15.31972963      15.32550970      15.33087816      15.33581399      15.34168790      15.34777673      15.35210368      15.35466372      15.35637443      15.35746801      15.35884389      15.36009024      15.36088301      15.36212321
        18.23071752      18.19949523      18.15884896      18.11617246      18.07014363      18.01910280      17.96065011      17.88568817      17.77924402      17.64074227      17.47799298      17.30801343      17.11846998      16.91918624      16.73061880      16.53847020      16.35907111      16.20923360      16.06752908      15.96042270
        15.93618074      15.92827885      15.91720900      15.90040192      15.87771537      15.85733261      15.83742699      15.81184567      15.78204468      15.74418892      15.69620758      15.65478545      15.62286954      15.59334146      15.56533812      15.53899039      15.51576511      15.49407580      15.47749370      15.47027653
        15.47179006      15.47328261      15.47082749      15.46963246      15.46915246      15.46787241      15.46961586      15.47023713      15.46679108      15.46696469      15.46991214      15.46826302      15.46443876      15.46232941      15.45859215      15.44630318      15.41940466      15.38556201      15.35696276      15.33491167
        15.33248518      15.34117260      15.34951804      15.35563450      15.36199849      15.36526873      15.36459322      15.36680501      15.37066316      15.36999432      15.36622515      15.36264536      15.36008970      15.35778082      15.35233314      15.34529187      15.34022899      15.33473412      15.32941003      15.32651657
        15.32450395      15.32382140      15.32546239      15.32747893      15.33072982      15.33581642      15.34113858      15.34597234      15.35112478      15.35616334      15.36132125      15.36693150      15.37175988      15.37512836      15.37710509      15.37795037      15.37857631      15.37963415      15.38021816      15.38063871
        18.54002775      18.50271282      18.45472635      18.40783256      18.35429752      18.29459002      18.22649938      18.14208952      18.03006754      17.89001926      17.72505266      17.55324264      17.35760204      17.13773539      16.93120803      16.72982688      16.53120755      16.35419308      16.18154616      16.03867440
        16.02764200      16.03074608      16.02227698      16.00569484      15.98113551      15.95574432      15.93162225      15.90273844      15.87095476      15.83534294      15.78818076      15.73815138      15.69831405      15.66381932      15.63296240      15.60385458      15.57807094      15.55308327      15.53315027      15.52208824
        15.52004371      15.52138143      15.51968781      15.51744133      15.51671858      15.51474165      15.51490270      15.51647982      15.51279337      15.50983369      15.51236947      15.51276815      15.50903768      15.50569999      15.50112585      15.48934024      15.46443540      15.42815589      15.39406348      15.37050326
        15.37043693      15.38216535      15.39205187      15.39751964      15.40291396      15.40800457      15.40817207      15.40840770      15.41212283      15.41243825      15.40787026      15.40243262      15.39754210      15.39376302      15.38870060      15.38026611      15.37223357      15.36516662      15.35829507      15.35405360
        15.35148555      15.34955809      15.35021668      15.35217081      15.35393846      15.35672611      15.36078049      15.36530363      15.37024168      15.37490301      15.37911753      15.38406988      15.38895440      15.39226480      15.39411770      15.39527779      15.39598656      15.39698762      15.39772709      15.39786465
        18.84193187      18.79931870      18.73976981      18.69061859      18.63741482      18.57176116      18.49579546      18.40370158      18.28597071      18.14095859      17.96609968      17.78801769      17.59803300      17.37057646      17.14064950      16.92292897      16.71546773      16.53153445      16.36668817      16.23046416
        16.18149929      16.15985582      16.13770607      16.11359901      16.08579479      16.05567829      16.02633012      15.99389999      15.95881310      15.92263620      15.87775044      15.82367573      15.77566274      15.73651487      15.69932189      15.66592738      15.63830217      15.61225242      15.58975193      15.57546999
        15.56943287      15.56902501      15.56827360      15.56583341      15.56457105      15.56251253      15.56115817      15.56282159      15.56014193      15.55434264      15.55460961      15.55674300      15.55339564      15.54823743      15.54298291      15.53271470      15.51286773      15.48230559      15.45007562      15.42921594
        15.42688068      15.43373598      15.44072413      15.44387268      15.44658168      15.45178827      15.45360459      15.45244074      15.45473699      15.45607755      15.45141396      15.44439424      15.43751832      15.43122702      15.42533180      15.41622854      15.40543212      15.39640896      15.38810415      15.38180488
        15.37810709      15.37508205      15.37397352      15.37458159      15.37475678      15.37594218      15.37913330      15.38294201      15.38695817      15.39140688      15.39558424      15.39976107      15.40392825      15.40715645      15.40945017      15.41118645      15.41205769      15.41272864      15.41365460      15.41404111
        19.13062724      19.09382242      19.02163205      18.95723523      18.90335821      18.84319546      18.77020070      18.67287652      18.54518494      18.39533203      18.21416586      18.02142918      17.82512860      17.59617215      17.35587276      17.12232556      16.90290743      16.71443817      16.55875037      16.43181340
        16.35016077      16.29794949      16.25700696      16.22067666      16.18684626      16.15262862      16.11904453      16.08412129      16.04624136      16.00705004      15.96320097      15.90793376      15.85325270      15.81034987      15.76813575      15.72852100      15.69765313      15.67083245      15.64609958      15.62932781
        15.62010216      15.61646879      15.61542633      15.61361645      15.61224650      15.61059439      15.60804305      15.60847256      15.60742951      15.60032528      15.59690146      15.59917408      15.59737616      15.59185836      15.58650384      15.57799558      15.56323061      15.54185179      15.51661669      15.49779979
        15.49164189      15.49177489      15.49395210      15.49426006      15.49344091      15.49672540      15.50018393      15.49869381      15.49813061      15.49926511      15.49522798      15.48744873      15.47938053      15.47058564      15.46262298      15.45338929      15.44063976      15.42843804      15.41796636      15.40931689
        15.40377618      15.39907338      15.39521376      15.39424897      15.39449026      15.39506510      15.39682368      15.39959061      15.40305215      15.40708014      15.41054581      15.41351620      15.41714337      15.42079742      15.42347797      15.42539380      15.42657930      15.42717551      15.42799984      15.42858297
        19.39375239      19.36619421      19.29631714      19.22219589      19.16189856      19.10009184      19.03314588      18.94553145      18.81703245      18.65301815      18.45488913      18.24556899      18.04513448      17.81676638      17.56679167      17.31976848      17.09014328      16.89275290      16.73195180      16.60317060
        16.50394710      16.43002340      16.37313704      16.32384259      16.28150495      16.24491599      16.20973175      16.17199280      16.13059004      16.08776130      16.04417830      15.98947990      15.92861655      15.88065135      15.83864895      15.79513326      15.75838048      15.72888109      15.70239130      15.68322729
        15.67145566      15.66401999      15.66101896      15.65984507      15.65878349      15.65743000      15.65440617      15.65325717      15.65348656      15.64711709      15.64022975      15.64115318      15.64177998      15.63704722      15.63147558      15.62472459      15.61386554      15.59990700      15.58261451      15.56578794
        15.55637330      15.55172497      15.54919602      15.54662430      15.54256834      15.54235770      15.54581600      15.54484995      15.54159100      15.54136272      15.53849235      15.53088508      15.52237297      15.51222111      15.50131526      15.49079955      15.47657026      15.46059782      15.44720348      15.43613247
        15.42815678      15.42201815      15.41644028      15.41386611      15.41333127      15.41288022      15.41331956      15.41516099      15.41747001      15.42038100      15.42362425      15.42682796      15.43052060      15.43429576      15.43703634      15.43878723      15.43984615      15.43993603      15.43994238      15.44033153
        19.63584909      19.61547926      19.55573654      19.47710644      19.41072577      19.34450150      19.27616103      19.19548625      19.07826099      18.91647715      18.70614127      18.47041125      18.25121500      18.02419788      17.77641142      17.51813653      17.27063050      17.05832150      16.88518257      16.74738260
        16.63749316      16.54881035      16.48035011      16.42250173      16.37107284      16.32882421      16.29108794      16.25203600      16.20982564      16.16452839      16.11925409      16.06707608      16.00565985      15.95256053      15.91045867      15.86377756      15.82116526      15.78721651      15.75731454      15.73475463
        15.72138997      15.71160740      15.70562608      15.70401967      15.70359007      15.70269618      15.69989391      15.69729479      15.69756804      15.69368972      15.68539454      15.68376605      15.68611200      15.68330577      15.67831020      15.67331995      15.66485273      15.65465426      15.64352551      15.62949247
        15.61722047      15.60905696      15.60329336      15.59854106      15.59234471      15.58820781      15.58970595      15.58983176      15.58533653      15.58257788      15.58016149      15.57327324      15.56460539      15.55409052      15.54024458      15.52697308      15.51209749      15.49340378      15.47641604      15.46288789
        15.45269684      15.44543593      15.43832084      15.43263069      15.42993713      15.42869480      15.42839520      15.42938308      15.43116677      15.43401389      15.43754215      15.44064846      15.44337762      15.44633501      15.44878173      15.44993999      15.45034452      15.45014372      15.44977809      15.45002142
        19.85647481      19.83953533      19.79425282      19.71836563      19.64493072      19.57441139      19.50375617      19.42428468      19.31563983      19.16369511      18.95656408      18.70295046      18.45345265      18.20836352      17.95944754      17.70479933      17.44658178      17.21715321      17.02629003      16.87267769
        16.75227300      16.65264995      16.57428599      16.51068810      16.45164507      16.40241723      16.36266715      16.32372504      16.28227999      16.23750509      16.19190004      16.14309182      16.08125028      16.02186910      15.97743920      15.93132720      15.88410555      15.84460717      15.81129047      15.78552867
        15.77041750      15.75947202      15.75002629      15.74625935      15.74623797      15.74590120      15.74350746      15.74026179      15.74014972      15.73956607      15.73264774      15.72832483      15.73095274      15.73081621      15.72644787      15.72208121      15.71534357      15.70678610      15.69915633      15.68798326
        15.67374842      15.66263676      15.65501410      15.64861617      15.64102717      15.63363866      15.63180154      15.63218517      15.62771930      15.62230119      15.61922618      15.61325600      15.60438434      15.59400364      15.57896050      15.56259600      15.54687978      15.52668041      15.50573117      15.48935424
        15.47690405      15.46779259      15.45944824      15.45150328      15.44696372      15.44498746      15.44382383      15.44407693      15.44572159      15.44779475      15.45006107      15.45221881      15.45418564      15.45634652      15.45814654      15.45874230      15.45879579      15.45867820      15.45813974      15.45792415
        20.05887911      20.04029631      20.00484573      19.94249527      19.86853124      19.78903348      19.70876148      19.62720976      19.52673103      19.38500648      19.18462431      18.92436317      18.65366032      18.38621229      18.11932636      17.86042939      17.60220367      17.36532615      17.15770407      16.98234413
        16.84713701      16.73840679      16.65160053      16.58444614      16.52259861      16.46838624      16.42677033      16.38810447      16.34685182      16.30328616      16.25837991      16.21277931      16.15351388      16.08886645      16.03949754      15.99570566      15.94750746      15.90305076      15.86564299      15.83595624