# File generated by Flopy version 3.5.0 on 03/06/2024 at 10:47:58.
BEGIN options
END options

BEGIN dimensions
  MAXBOUND  5000
END dimensions

BEGIN period  1
  1 1 1.41505892E-08
  1 2 1.35908693E-08
  1 3 1.29573444E-08
  1 4 1.29274225E-08
  1 5 1.31021489E-08
  1 6 1.27667461E-08
  1 7 1.21443260E-08
  1 8 1.19826369E-08
  1 9 1.22044831E-08
  1 10 1.19795197E-08
  1 11 1.11378189E-08
  1 12 1.05218540E-08
  1 13 1.06574749E-08
  1 14 1.09742068E-08
  1 15 1.08507652E-08
  1 16 1.06472469E-08
  1 17 1.09464963E-08
  1 18 1.13440195E-08
  1 19 1.09349298E-08
  1 20 9.74441615E-09
  1 21 8.70521500E-09
  1 22 8.22666301E-09
  1 23 7.75879536E-09
  1 24 7.00956025E-09
  1 25 6.63249631E-09
  1 26 7.14036177E-09
  1 27 7.89796285E-09
  1 28 7.97231074E-09
  1 29 7.47542245E-09
  1 30 7.19648378E-09
  1 31 7.22085115E-09
  1 32 6.91246363E-09
  1 33 6.23734960E-09
  1 34 6.06575013E-09
  1 35 6.83696718E-09
  1 36 7.81154389E-09
  1 37 8.18675804E-09
  1 38 8.21756264E-09
  1 39 8.51581943E-09
  1 40 8.82834163E-09
  1 41 8.45536076E-09
  1 42 7.60194828E-09
  1 43 7.29608964E-09
  1 44 7.92428575E-09
  1 45 8.79833823E-09
  1 46 9.42553658E-09
  1 47 1.02831871E-08
  1 48 1.18012449E-08
  1 49 1.33669200E-08
  1 50 1.41382717E-08
  1 51 1.43348992E-08
  1 52 1.48194428E-08
  1 53 1.56737667E-08
  1 54 1.61681083E-08
  1 55 1.61240756E-08
  1 56 1.62938435E-08
  1 57 1.70888057E-08
  1 58 1.78465685E-08
  1 59 1.79192256E-08
  1 60 1.77462323E-08
  1 61 1.80916889E-08
  1 62 1.87565252E-08
  1 63 1.89615900E-08
  1 64 1.87260123E-08
  1 65 1.88616371E-08
  1 66 1.95866986E-08
  1 67 2.01399020E-08
  1 68 2.00670901E-08
  1 69 1.99840466E-08
  1 70 2.05103013E-08
  1 71 2.11964091E-08
  1 72 2.12741052E-08
  1 73 2.09364365E-08
  1 74 2.09561210E-08
  1 75 2.13117204E-08
  1 76 2.12006150E-08
  1 77 2.04390284E-08
  1 78 1.98589739E-08
  1 79 2.00113760E-08
  1 80 2.03674018E-08
  1 81 2.03423922E-08
  1 82 2.03429680E-08
  1 83 2.10153693E-08
  1 84 2.19860996E-08
  1 85 2.22879431E-08
  1 86 2.17979450E-08
  1 87 2.12848370E-08
  1 88 2.10331370E-08
  1 89 2.04207584E-08
  1 90 1.91549963E-08
  1 91 1.79971763E-08
  1 92 1.76681550E-08
  1 93 1.77526208E-08
  1 94 1.74483427E-08
  1 95 1.68797924E-08
  1 96 1.67620397E-08
  1 97 1.70491553E-08
  1 98 1.69411521E-08
  1 99 1.62723269E-08
  1 100 1.59005515E-08
  1 101 1.29374414E-08
  1 102 1.25008971E-08
  1 103 1.25501774E-08
  1 104 1.23461010E-08
  1 105 1.16793935E-08
  1 106 1.12871911E-08
  1 107 1.15960385E-08
  1 108 1.19574021E-08
  1 109 1.17068065E-08
  1 110 1.12499196E-08
  1 111 1.13239561E-08
  1 112 1.17009744E-08
  1 113 1.15506943E-08
  1 114 1.08365396E-08
  1 115 1.03541012E-08
  1 116 1.03565643E-08
  1 117 1.01373574E-08
  1 118 9.29411945E-09
  1 119 8.50311300E-09
  1 120 8.45764341E-09
  1 121 8.76130399E-09
  1 122 8.64401685E-09
  1 123 8.25563841E-09
  1 124 8.32273179E-09
  1 125 8.78309275E-09
  1 126 8.78042424E-09
  1 127 8.07038266E-09
  1 128 7.45411686E-09
  1 129 7.49590286E-09
  1 130 7.69440219E-09
  1 131 7.47921956E-09
  1 132 7.27203508E-09
  1 133 7.75741415E-09
  1 134 8.60896819E-09
  1 135 8.88525517E-09
  1 136 8.47312088E-09
  1 137 8.16750281E-09
  1 138 8.29909186E-09
  1 139 8.27735116E-09
  1 140 7.80634440E-09
  1 141 7.62909039E-09
  1 142 8.44979988E-09
  1 143 9.81739045E-09
  1 144 1.08520336E-08
  1 145 1.15800603E-08
  1 146 1.26398327E-08
  1 147 1.39376429E-08
  1 148 1.46315345E-08
  1 149 1.45185941E-08
  1 150 1.44539859E-08
  1 151 1.50478176E-08
  1 152 1.58095633E-08
  1 153 1.61364101E-08
  1 154 1.63990697E-08
  1 155 1.72476579E-08
  1 156 1.83526205E-08
  1 157 1.87950445E-08
  1 158 1.85029618E-08
  1 159 1.83232285E-08
  1 160 1.86257335E-08
  1 161 1.88142402E-08
  1 162 1.85322860E-08
  1 163 1.84332706E-08
  1 164 1.91404807E-08
  1 165 2.01541722E-08
  1 166 2.05897768E-08
  1 167 2.05231975E-08
  1 168 2.06940920E-08
  1 169 2.11287933E-08
  1 170 2.10748064E-08
  1 171 2.03594521E-08
  1 172 1.98154706E-08
  1 173 2.00001180E-08
  1 174 2.03604755E-08
  1 175 2.02472887E-08
  1 176 2.00320852E-08
  1 177 2.04251225E-08
  1 178 2.11873592E-08
  1 179 2.14681250E-08
  1 180 2.12036044E-08
  1 181 2.11803697E-08
  1 182 2.16485379E-08
  1 183 2.18549383E-08
  1 184 2.12956933E-08
  1 185 2.05489978E-08
  1 186 2.02749447E-08
  1 187 2.01105539E-08
  1 188 1.93581559E-08
  1 189 1.82761230E-08
  1 190 1.77355773E-08
  1 191 1.78039339E-08
  1 192 1.76634034E-08
  1 193 1.70008480E-08
  1 194 1.65028322E-08
  1 195 1.66380707E-08
  1 196 1.68469032E-08
  1 197 1.65456687E-08
  1 198 1.62177521E-08
  1 199 1.66892256E-08
  1 200 1.77846692E-08
  1 201 1.16830394E-08
  1 202 1.17677258E-08
  1 203 1.15058301E-08
  1 204 1.12417664E-08
  1 205 1.16203526E-08
  1 206 1.23188421E-08
  1 207 1.24065951E-08
  1 208 1.17821357E-08
  1 209 1.12738552E-08
  1 210 1.12490847E-08
  1 211 1.10971031E-08
  1 212 1.04261315E-08
  1 213 9.86703034E-09
  1 214 1.00622117E-08
  1 215 1.05556594E-08
  1 216 1.04992507E-08
  1 217 9.99888186E-09
  1 218 9.83441485E-09
  1 219 1.00668881E-08
  1 220 9.93449129E-09
  1 221 9.20721759E-09
  1 222 8.65365971E-09
  1 223 8.79172413E-09
  1 224 9.04479752E-09
  1 225 8.74382287E-09
  1 226 8.26440042E-09
  1 227 8.36340341E-09
  1 228 8.86461196E-09
  1 229 8.95062936E-09
  1 230 8.55512261E-09
  1 231 8.45858799E-09
  1 232 8.91736770E-09
  1 233 9.18090548E-09
  1 234 8.74140335E-09
  1 235 8.19654382E-09
  1 236 8.26552794E-09
  1 237 8.64986759E-09
  1 238 8.67523861E-09
  1 239 8.57801979E-09
  1 240 9.18692024E-09
  1 241 1.05101732E-08
  1 242 1.16388103E-08
  1 243 1.21511345E-08
  1 244 1.26564095E-08
  1 245 1.36029214E-08
  1 246 1.44415256E-08
  1 247 1.45978005E-08
  1 248 1.45679052E-08
  1 249 1.52094828E-08
  1 250 1.63802063E-08
  1 251 1.72062167E-08
  1 252 1.75007307E-08
  1 253 1.79230386E-08
  1 254 1.86629214E-08
  1 255 1.89780138E-08
  1 256 1.84361497E-08
  1 257 1.77548736E-08
  1 258 1.77739310E-08
  1 259 1.82577702E-08
  1 260 1.84993137E-08
  1 261 1.86203931E-08
  1 262 1.93077992E-08
  1 263 2.04558611E-08
  1 264 2.11046165E-08
  1 265 2.08624360E-08
  1 266 2.04481614E-08
  1 267 2.04625858E-08
  1 268 2.04872608E-08
  1 269 2.00047374E-08
  1 270 1.94891510E-08
  1 271 1.97292488E-08
  1 272 2.05059073E-08
  1 273 2.08943130E-08
  1 274 2.07125904E-08
  1 275 2.06921047E-08
  1 276 2.11312253E-08
  1 277 2.13687600E-08
  1 278 2.09731463E-08
  1 279 2.05722954E-08
  1 280 2.08523760E-08
  1 281 2.14015464E-08
  1 282 2.13655592E-08
  1 283 2.08066177E-08
  1 284 2.04751589E-08
  1 285 2.04330205E-08
  1 286 1.99248216E-08
  1 287 1.87298848E-08
  1 288 1.76609806E-08
  1 289 1.73190308E-08
  1 290 1.71980701E-08
  1 291 1.66448142E-08
  1 292 1.60178213E-08
  1 293 1.60697713E-08
  1 294 1.66351394E-08
  1 295 1.68957784E-08
  1 296 1.67795751E-08
  1 297 1.70880350E-08
  1 298 1.81153247E-08
  1 299 1.91059056E-08
  1 300 1.94707418E-08
  1 301 1.19484745E-08
  1 302 1.19377034E-08
  1 303 1.21034291E-08
  1 304 1.26245463E-08
  1 305 1.27484056E-08
  1 306 1.20127660E-08
  1 307 1.11049601E-08
  1 308 1.08552891E-08
  1 309 1.10243700E-08
  1 310 1.08863454E-08
  1 311 1.05482874E-08
  1 312 1.07225427E-08
  1 313 1.13659771E-08
  1 314 1.15768508E-08
  1 315 1.09949315E-08
  1 316 1.03580483E-08
  1 317 1.02800680E-08
  1 318 1.03245857E-08
  1 319 9.91132370E-09
  1 320 9.44045075E-09
  1 321 9.66002446E-09
  1 322 1.03443841E-08
  1 323 1.05675894E-08
  1 324 1.01472652E-08
  1 325 9.83546512E-09
  1 326 9.96962265E-09
  1 327 9.91138867E-09
  1 328 9.22201572E-09
  1 329 8.52550806E-09
  1 330 8.54101043E-09
  1 331 8.91507291E-09
  1 332 8.84740159E-09
  1 333 8.44895138E-09
  1 334 8.52757897E-09
  1 335 9.19184149E-09
  1 336 9.67812825E-09
  1 337 9.69233518E-09
  1 338 9.94719419E-09
  1 339 1.09514410E-08
  1 340 1.21114980E-08
  1 341 1.26857179E-08
  1 342 1.29711634E-08
  1 343 1.37139229E-08
  1 344 1.47784110E-08
  1 345 1.53695852E-08
  1 346 1.54219503E-08
  1 347 1.57532819E-08
  1 348 1.66924814E-08
  1 349 1.75129383E-08
  1 350 1.76377480E-08
  1 351 1.75647656E-08
  1 352 1.79542114E-08
  1 353 1.84743747E-08
  1 354 1.84043157E-08
  1 355 1.79585638E-08
  1 356 1.80376002E-08
  1 357 1.87913640E-08
  1 358 1.94174352E-08
  1 359 1.95143698E-08
  1 360 1.96713316E-08
  1 361 2.03129905E-08
  1 362 2.08290164E-08
  1 363 2.05313531E-08
  1 364 1.98318297E-08
  1 365 1.96249326E-08
  1 366 1.99055957E-08
  1 367 1.99409523E-08
  1 368 1.96465642E-08
  1 369 1.97685214E-08
  1 370 2.05503815E-08
  1 371 2.11948770E-08
  1 372 2.10912805E-08
  1 373 2.07570326E-08
  1 374 2.09164637E-08
  1 375 2.13031583E-08
  1 376 2.12133282E-08
  1 377 2.08127526E-08
  1 378 2.09046981E-08
  1 379 2.15230379E-08
  1 380 2.17618933E-08
  1 381 2.11682345E-08
  1 382 2.03677685E-08
  1 383 1.99113478E-08
  1 384 1.93595052E-08
  1 385 1.81780614E-08
  1 386 1.68737073E-08
  1 387 1.63599925E-08
  1 388 1.65731693E-08
  1 389 1.66624908E-08
  1 390 1.64159779E-08
  1 391 1.65035293E-08
  1 392 1.71745699E-08
  1 393 1.77032654E-08
  1 394 1.75756002E-08
  1 395 1.73933974E-08
  1 396 1.79205716E-08
  1 397 1.88588449E-08
  1 398 1.94018949E-08
  1 399 1.95873578E-08
  1 400 2.01311252E-08
  1 401 1.20767273E-08
  1 402 1.21695154E-08
  1 403 1.23777227E-08
  1 404 1.19842171E-08
  1 405 1.11972597E-08
  1 406 1.09284256E-08
  1 407 1.13549449E-08
  1 408 1.16877375E-08
  1 409 1.15178893E-08
  1 410 1.14361365E-08
  1 411 1.18936200E-08
  1 412 1.23038072E-08
  1 413 1.19710181E-08
  1 414 1.12810878E-08
  1 415 1.11114273E-08
  1 416 1.14418718E-08
  1 417 1.15003584E-08
  1 418 1.11465458E-08
  1 419 1.10929664E-08
  1 420 1.15869060E-08
  1 421 1.18460722E-08
  1 422 1.12679553E-08
  1 423 1.03917106E-08
  1 424 9.99575345E-09
  1 425 9.87777860E-09
  1 426 9.37483362E-09
  1 427 8.67607864E-09
  1 428 8.62041491E-09
  1 429 9.28858174E-09
  1 430 9.79984558E-09
  1 431 9.69306420E-09
  1 432 9.57843075E-09
  1 433 9.99872885E-09
  1 434 1.04891354E-08
  1 435 1.04504413E-08
  1 436 1.03066077E-08
  1 437 1.09077301E-08
  1 438 1.21466670E-08
  1 439 1.31264972E-08
  1 440 1.35915348E-08
  1 441 1.42029349E-08
  1 442 1.52420996E-08
  1 443 1.60200877E-08
  1 444 1.60387733E-08
  1 445 1.59114931E-08
  1 446 1.64298972E-08
  1 447 1.73232495E-08
  1 448 1.77869085E-08
  1 449 1.78470924E-08
  1 450 1.82294383E-08
  1 451 1.89947605E-08
  1 452 1.93335180E-08
  1 453 1.89162878E-08
  1 454 1.85033310E-08
  1 455 1.87524324E-08
  1 456 1.92256130E-08
  1 457 1.92448291E-08
  1 458 1.90892548E-08
  1 459 1.94704408E-08
  1 460 2.02079488E-08
  1 461 2.04227279E-08
  1 462 1.99672917E-08
  1 463 1.96736770E-08
  1 464 1.99955213E-08
  1 465 2.03419255E-08
  1 466 2.01961472E-08
  1 467 2.00549501E-08
  1 468 2.05549862E-08
  1 469 2.12941068E-08
  1 470 2.14072494E-08
  1 471 2.09597015E-08
  1 472 2.08078182E-08
  1 473 2.11753950E-08
  1 474 2.13612638E-08
  1 475 2.10299617E-08
  1 476 2.08208890E-08
  1 477 2.12017680E-08
  1 478 2.15400429E-08
  1 479 2.10297237E-08
  1 480 1.99506717E-08
  1 481 1.91608889E-08
  1 482 1.87192808E-08
  1 483 1.79807233E-08
  1 484 1.69395771E-08
  1 485 1.64385482E-08
  1 486 1.68178579E-08
  1 487 1.72939405E-08
  1 488 1.71580426E-08
  1 489 1.68073908E-08
  1 490 1.69237970E-08
  1 491 1.72715023E-08
  1 492 1.71923040E-08
  1 493 1.69109420E-08
  1 494 1.73338550E-08
  1 495 1.85988720E-08
  1 496 1.98030966E-08
  1 497 2.03708921E-08
  1 498 2.07714131E-08
  1 499 2.14503338E-08
  1 500 2.19056653E-08
  1 501 1.27935328E-08
  1 502 1.29612742E-08
  1 503 1.23982028E-08
  1 504 1.18608494E-08
  1 505 1.20145168E-08
  1 506 1.24187056E-08
  1 507 1.23654069E-08
  1 508 1.21021340E-08
  1 509 1.23440549E-08
  1 510 1.29436063E-08
  1 511 1.30464897E-08
  1 512 1.25090343E-08
  1 513 1.21647715E-08
  1 514 1.24684867E-08
  1 515 1.28018176E-08
  1 516 1.25828452E-08
  1 517 1.22443277E-08
  1 518 1.24020819E-08
  1 519 1.26724545E-08
  1 520 1.22212160E-08
  1 521 1.11562260E-08
  1 522 1.04041678E-08
  1 523 1.02711931E-08
  1 524 1.01066121E-08
  1 525 9.57908433E-09
  1 526 9.31915377E-09
  1 527 9.80231172E-09
  1 528 1.04087847E-08
  1 529 1.03311435E-08
  1 530 9.84658675E-09
  1 531 9.82837309E-09
  1 532 1.03477530E-08
  1 533 1.07269758E-08
  1 534 1.08790137E-08
  1 535 1.15559392E-08
  1 536 1.30254439E-08
  1 537 1.44409288E-08
  1 538 1.50368508E-08
  1 539 1.51886145E-08
  1 540 1.56112020E-08
  1 541 1.61278861E-08
  1 542 1.61195160E-08
  1 543 1.58244215E-08
  1 544 1.61641686E-08
  1 545 1.72991504E-08
  1 546 1.83348370E-08
  1 547 1.86883943E-08
  1 548 1.88383649E-08
  1 549 1.92715451E-08
  1 550 1.95261743E-08
  1 551 1.90221522E-08
  1 552 1.82418143E-08
  1 553 1.81657297E-08
  1 554 1.88301386E-08
  1 555 1.93890145E-08
  1 556 1.95299511E-08
  1 557 1.98345895E-08
  1 558 2.05381237E-08
  1 559 2.09116841E-08
  1 560 2.04092138E-08
  1 561 1.96489515E-08
  1 562 1.95242849E-08
  1 563 1.98982292E-08
  1 564 2.00317047E-08
  1 565 1.99408055E-08
  1 566 2.03298467E-08
  1 567 2.12405650E-08
  1 568 2.17967341E-08
  1 569 2.15544782E-08
  1 570 2.11941573E-08
  1 571 2.13775961E-08
  1 572 2.16982499E-08
  1 573 2.14683591E-08
  1 574 2.09407362E-08
  1 575 2.08454364E-08
  1 576 2.10496433E-08
  1 577 2.06842586E-08
  1 578 1.95761949E-08
  1 579 1.85704511E-08
  1 580 1.81940747E-08
  1 581 1.79183811E-08
  1 582 1.72259500E-08
  1 583 1.65961225E-08
  1 584 1.66893405E-08
  1 585 1.71393306E-08
  1 586 1.70706483E-08
  1 587 1.65161508E-08
  1 588 1.63526926E-08
  1 589 1.68770092E-08
  1 590 1.74306610E-08
  1 591 1.76520657E-08
  1 592 1.81394268E-08
  1 593 1.93453845E-08
  1 594 2.06048178E-08
  1 595 2.10200056E-08
  1 596 2.07744394E-08
  1 597 2.07090242E-08
  1 598 2.09356896E-08
  1 599 2.08541499E-08
  1 600 2.04732893E-08
  1 601 1.29403720E-08
  1 602 1.20225243E-08
  1 603 1.18374763E-08
  1 604 1.24269177E-08
  1 605 1.29367143E-08
  1 606 1.30390383E-08
  1 607 1.33248588E-08
  1 608 1.40668594E-08
  1 609 1.45597518E-08
  1 610 1.42332751E-08
  1 611 1.36484035E-08
  1 612 1.36384017E-08
  1 613 1.40048978E-08
  1 614 1.39394238E-08
  1 615 1.34088269E-08
  1 616 1.31326711E-08
  1 617 1.32337914E-08
  1 618 1.29366483E-08
  1 619 1.18821940E-08
  1 620 1.08237130E-08
  1 621 1.04883769E-08
  1 622 1.05031110E-08
  1 623 1.01656789E-08
  1 624 9.69734451E-09
  1 625 9.82448115E-09
  1 626 1.04391342E-08
  1 627 1.06892940E-08
  1 628 1.03943404E-08
  1 629 1.03813073E-08
  1 630 1.11490779E-08
  1 631 1.21025915E-08
  1 632 1.26122811E-08
  1 633 1.30427480E-08
  1 634 1.39863672E-08
  1 635 1.50582446E-08
  1 636 1.53888837E-08
  1 637 1.50392522E-08
  1 638 1.49500432E-08
  1 639 1.54996125E-08
  1 640 1.60813575E-08
  1 641 1.63364170E-08
  1 642 1.68470575E-08
  1 643 1.80615690E-08
  1 644 1.93125975E-08
  1 645 1.96848647E-08
  1 646 1.93450462E-08
  1 647 1.91434516E-08
  1 648 1.92143588E-08
  1 649 1.89551403E-08
  1 650 1.83436618E-08
  1 651 1.82311238E-08
  1 652 1.90160454E-08
  1 653 1.99277046E-08
  1 654 2.01663889E-08
  1 655 2.00203891E-08
  1 656 2.01462671E-08
  1 657 2.03354817E-08
  1 658 1.99247532E-08
  1 659 1.91274716E-08
  1 660 1.89307538E-08
  1 661 1.96367679E-08
  1 662 2.04632709E-08
  1 663 2.08456580E-08
  1 664 2.12230542E-08
  1 665 2.20252112E-08
  1 666 2.26855133E-08
  1 667 2.24513242E-08
  1 668 2.16444497E-08
  1 669 2.12037579E-08
  1 670 2.12451186E-08
  1 671 2.10383816E-08
  1 672 2.03787415E-08
  1 673 1.99683491E-08
  1 674 2.01589493E-08
  1 675 2.02477946E-08
  1 676 1.95841559E-08
  1 677 1.86322088E-08
  1 678 1.81880783E-08
  1 679 1.80861727E-08
  1 680 1.75851449E-08
  1 681 1.67378384E-08
  1 682 1.63708118E-08
  1 683 1.66998416E-08
  1 684 1.69630731E-08
  1 685 1.67174204E-08
  1 686 1.65898287E-08
  1 687 1.71989376E-08
  1 688 1.80872565E-08
  1 689 1.84795487E-08
  1 690 1.85559531E-08
  1 691 1.90590274E-08
  1 692 1.99268952E-08
  1 693 2.03259314E-08
  1 694 2.00565777E-08
  1 695 1.99375168E-08
  1 696 2.05013425E-08
  1 697 2.12056487E-08
  1 698 2.14654739E-08
  1 699 2.16930425E-08
  1 700 2.25386787E-08
  1 701 1.25704616E-08
  1 702 1.34845156E-08
  1 703 1.45655620E-08
  1 704 1.49925359E-08
  1 705 1.50287502E-08
  1 706 1.53229739E-08
  1 707 1.56576350E-08
  1 708 1.53281471E-08
  1 709 1.44845435E-08
  1 710 1.40709405E-08
  1 711 1.43837519E-08
  1 712 1.46517783E-08
  1 713 1.43287839E-08
  1 714 1.39014991E-08
  1 715 1.38851019E-08
  1 716 1.38000654E-08
  1 717 1.29425544E-08
  1 718 1.16509570E-08
  1 719 1.08795277E-08
  1 720 1.07609767E-08
  1 721 1.05620269E-08
  1 722 1.00589883E-08
  1 723 9.95294943E-09
  1 724 1.06217623E-08
  1 725 1.13802221E-08
  1 726 1.15554604E-08
  1 727 1.15634330E-08
  1 728 1.21521099E-08
  1 729 1.31018894E-08
  1 730 1.35944418E-08
  1 731 1.36024748E-08
  1 732 1.39134090E-08
  1 733 1.47550404E-08
  1 734 1.53954322E-08
  1 735 1.54159232E-08
  1 736 1.54749563E-08
  1 737 1.62370761E-08
  1 738 1.72755658E-08
  1 739 1.78022578E-08
  1 740 1.79588258E-08
  1 741 1.84640556E-08
  1 742 1.92534519E-08
  1 743 1.94884941E-08
  1 744 1.89610377E-08
  1 745 1.85054875E-08
  1 746 1.87010769E-08
  1 747 1.90479308E-08
  1 748 1.89714431E-08
  1 749 1.88791822E-08
  1 750 1.94298214E-08
  1 751 2.02769736E-08
  1 752 2.04876745E-08
  1 753 1.99851929E-08
  1 754 1.96063472E-08
  1 755 1.97112011E-08
  1 756 1.97220689E-08
  1 757 1.93328242E-08
  1 758 1.92393095E-08
  1 759 2.00628720E-08
  1 760 2.12646283E-08
  1 761 2.19099770E-08
  1 762 2.20187981E-08
  1 763 2.22656228E-08
  1 764 2.26287778E-08
  1 765 2.23655949E-08
  1 766 2.13720004E-08
  1 767 2.05606924E-08
  1 768 2.05367528E-08
  1 769 2.07565830E-08
  1 770 2.05453792E-08
  1 771 2.02031211E-08
  1 772 2.03267491E-08
  1 773 2.05745662E-08
  1 774 2.00718026E-08
  1 775 1.88303705E-08
  1 776 1.77811821E-08
  1 777 1.73499830E-08
  1 778 1.69648251E-08
  1 779 1.62659923E-08
  1 780 1.58763153E-08
  1 781 1.63720237E-08
  1 782 1.72191958E-08
  1 783 1.75362250E-08
  1 784 1.74325935E-08
  1 785 1.76850747E-08
  1 786 1.83426036E-08
  1 787 1.86574391E-08
  1 788 1.84378867E-08
  1 789 1.84642669E-08
  1 790 1.92162115E-08
  1 791 2.00693085E-08
  1 792 2.03359622E-08
  1 793 2.03824443E-08
  1 794 2.09327720E-08
  1 795 2.17759745E-08
  1 796 2.21044466E-08
  1 797 2.19004107E-08
  1 798 2.19807553E-08
  1 799 2.26093695E-08
  1 800 2.30486810E-08
  1 801 1.57456136E-08
  1 802 1.62128330E-08
  1 803 1.59338980E-08
  1 804 1.57081451E-08
  1 805 1.58862803E-08
  1 806 1.58793558E-08
  1 807 1.53521638E-08
  1 808 1.49780650E-08
  1 809 1.53842144E-08
  1 810 1.60483635E-08
  1 811 1.60401385E-08
  1 812 1.53871862E-08
  1 813 1.48075976E-08
  1 814 1.43535176E-08
  1 815 1.33487401E-08
  1 816 1.17343221E-08
  1 817 1.04684427E-08
  1 818 1.02100323E-08
  1 819 1.04489073E-08
  1 820 1.05021305E-08
  1 821 1.06424381E-08
  1 822 1.14505759E-08
  1 823 1.25692402E-08
  1 824 1.30778926E-08
  1 825 1.29154006E-08
  1 826 1.29453655E-08
  1 827 1.35425040E-08
  1 828 1.40786414E-08
  1 829 1.41291290E-08
  1 830 1.42791776E-08
  1 831 1.51220656E-08
  1 832 1.61740686E-08
  1 833 1.65997738E-08
  1 834 1.65474724E-08
  1 835 1.68400733E-08
  1 836 1.75652872E-08
  1 837 1.79719609E-08
  1 838 1.78232238E-08
  1 839 1.78559406E-08
  1 840 1.85379746E-08
  1 841 1.92503906E-08
  1 842 1.93093648E-08
  1 843 1.90963589E-08
  1 844 1.93764777E-08
  1 845 1.99799934E-08
  1 846 2.01009395E-08
  1 847 1.96868183E-08
  1 848 1.95250553E-08
  1 849 1.98772624E-08
  1 850 2.00160445E-08
  1 851 1.94805076E-08
  1 852 1.89174661E-08
  1 853 1.90707435E-08
  1 854 1.96336405E-08
  1 855 1.98938462E-08
  1 856 2.00185842E-08
  1 857 2.07398912E-08
  1 858 2.19696818E-08
  1 859 2.27443244E-08
  1 860 2.26493971E-08
  1 861 2.23504660E-08
  1 862 2.23771287E-08
  1 863 2.22690745E-08
  1 864 2.15282135E-08
  1 865 2.06857620E-08
  1 866 2.05777538E-08
  1 867 2.10039323E-08
  1 868 2.10374730E-08
  1 869 2.04707875E-08
  1 870 1.99778653E-08
  1 871 1.97954615E-08
  1 872 1.92559431E-08
  1 873 1.80079735E-08
  1 874 1.68167151E-08
  1 875 1.65101036E-08
  1 876 1.67922732E-08
  1 877 1.68801510E-08
  1 878 1.68292588E-08
  1 879 1.72843826E-08
  1 880 1.81390636E-08
  1 881 1.84854626E-08
  1 882 1.80201898E-08
  1 883 1.75434476E-08
  1 884 1.76953909E-08
  1 885 1.80499305E-08
  1 886 1.80459935E-08
  1 887 1.80862551E-08
  1 888 1.88727536E-08
  1 889 2.01133455E-08
  1 890 2.08524783E-08
  1 891 2.09200742E-08
  1 892 2.10768645E-08
  1 893 2.16485852E-08
  1 894 2.19985104E-08
  1 895 2.17173027E-08
  1 896 2.14444163E-08
  1 897 2.18656016E-08
  1 898 2.25742339E-08
  1 899 2.27432292E-08
  1 900 2.24742703E-08
  1 901 1.67893590E-08
  1 902 1.63171360E-08
  1 903 1.64146921E-08
  1 904 1.67989524E-08
  1 905 1.67541556E-08
  1 906 1.64239831E-08
  1 907 1.65326954E-08
  1 908 1.70095813E-08
  1 909 1.69146674E-08
  1 910 1.58644692E-08
  1 911 1.45912649E-08
  1 912 1.37315882E-08
  1 913 1.29293769E-08
  1 914 1.17468792E-08
  1 915 1.07371482E-08
  1 916 1.07434345E-08
  1 917 1.15528250E-08
  1 918 1.21869207E-08
  1 919 1.23629928E-08
  1 920 1.26979957E-08
  1 921 1.34009095E-08
  1 922 1.37744587E-08
  1 923 1.34161499E-08
  1 924 1.30409890E-08
  1 925 1.34521686E-08
  1 926 1.43420117E-08
  1 927 1.49085783E-08
  1 928 1.51979752E-08
  1 929 1.58860619E-08
  1 930 1.69286720E-08
  1 931 1.74665683E-08
  1 932 1.72093714E-08
  1 933 1.69537928E-08
  1 934 1.73336849E-08
  1 935 1.78962717E-08
  1 936 1.80248814E-08
  1 937 1.80720530E-08
  1 938 1.87347306E-08
  1 939 1.97530620E-08
  1 940 2.02035410E-08
  1 941 1.99367755E-08
  1 942 1.97410925E-08
  1 943 1.99759243E-08
  1 944 2.00150893E-08
  1 945 1.94291299E-08
  1 946 1.88441792E-08
  1 947 1.89732229E-08
  1 948 1.94626582E-08
  1 949 1.95298165E-08
  1 950 1.93079720E-08
  1 951 1.96053505E-08
  1 952 2.04990419E-08
  1 953 2.11741267E-08
  1 954 2.12775859E-08
  1 955 2.14599846E-08
  1 956 2.21777209E-08
  1 957 2.28214417E-08
  1 958 2.26853145E-08
  1 959 2.21367255E-08
  1 960 2.19941261E-08
  1 961 2.21776931E-08
  1 962 2.19278610E-08
  1 963 2.11880344E-08
  1 964 2.07519538E-08
  1 965 2.09059747E-08
  1 966 2.08964335E-08
  1 967 2.01572996E-08
  1 968 1.92271115E-08
  1 969 1.88155410E-08
  1 970 1.86375327E-08
  1 971 1.80081978E-08
  1 972 1.71498819E-08
  1 973 1.69282198E-08
  1 974 1.74291472E-08
  1 975 1.77932062E-08
  1 976 1.75949337E-08
  1 977 1.74333936E-08
  1 978 1.77697941E-08
  1 979 1.80540980E-08
  1 980 1.76699456E-08
  1 981 1.70804324E-08
  1 982 1.71815966E-08
  1 983 1.79211522E-08
  1 984 1.84948415E-08
  1 985 1.87425233E-08
  1 986 1.93384824E-08
  1 987 2.04717754E-08
  1 988 2.13281591E-08
  1 989 2.13211715E-08
  1 990 2.10110803E-08
  1 991 2.11587884E-08
  1 992 2.15251501E-08
  1 993 2.14329556E-08
  1 994 2.10720099E-08
  1 995 2.12589597E-08
  1 996 2.20360061E-08
  1 997 2.25159048E-08
  1 998 2.22739782E-08
  1 999 2.19522418E-08
  1 1000 2.20889880E-08
  1 1001 1.71888694E-08
  1 1002 1.78233690E-08
  1 1003 1.81446085E-08
  1 1004 1.77626850E-08
  1 1005 1.73055139E-08
  1 1006 1.72504197E-08
  1 1007 1.70361324E-08
  1 1008 1.60082122E-08
  1 1009 1.45974581E-08
  1 1010 1.37114514E-08
  1 1011 1.33595498E-08
  1 1012 1.28275497E-08
  1 1013 1.20553519E-08
  1 1014 1.18179065E-08
  1 1015 1.23839034E-08
  1 1016 1.29644700E-08
  1 1017 1.29333168E-08
  1 1018 1.27735974E-08
  1 1019 1.31696416E-08
  1 1020 1.38221136E-08
  1 1021 1.40119547E-08
  1 1022 1.39156842E-08
  1 1023 1.43738474E-08
  1 1024 1.54705083E-08
  1 1025 1.63394283E-08
  1 1026 1.65369654E-08
  1 1027 1.66612781E-08
  1 1028 1.72038630E-08
  1 1029 1.76472894E-08
  1 1030 1.73814600E-08
  1 1031 1.68632607E-08
  1 1032 1.69975949E-08
  1 1033 1.77481336E-08
  1 1034 1.83051463E-08
  1 1035 1.84850916E-08
  1 1036 1.89549007E-08
  1 1037 1.99222317E-08
  1 1038 2.05882916E-08
  1 1039 2.03609801E-08
  1 1040 1.97969945E-08
  1 1041 1.96792873E-08
  1 1042 1.97995393E-08
  1 1043 1.94921348E-08
  1 1044 1.89487127E-08
  1 1045 1.90086548E-08
  1 1046 1.97553491E-08
  1 1047 2.03258547E-08
  1 1048 2.02892432E-08
  1 1049 2.02751383E-08
  1 1050 2.08176424E-08
  1 1051 2.14214442E-08
  1 1052 2.14490590E-08
  1 1053 2.12808153E-08
  1 1054 2.17183038E-08
  1 1055 2.26172562E-08
  1 1056 2.30761253E-08
  1 1057 2.28664777E-08
  1 1058 2.26865145E-08
  1 1059 2.28485833E-08
  1 1060 2.26910000E-08
  1 1061 2.17419394E-08
  1 1062 2.06312600E-08
  1 1063 2.01539108E-08
  1 1064 2.00462266E-08
  1 1065 1.95342287E-08
  1 1066 1.86947386E-08
  1 1067 1.83021047E-08
  1 1068 1.84504938E-08
  1 1069 1.83485966E-08
  1 1070 1.76653908E-08
  1 1071 1.71267013E-08
  1 1072 1.73247862E-08
  1 1073 1.77526236E-08
  1 1074 1.76893434E-08
  1 1075 1.74040293E-08
  1 1076 1.76219535E-08
  1 1077 1.81968397E-08
  1 1078 1.83025679E-08
  1 1079 1.78445721E-08
  1 1080 1.76779068E-08
  1 1081 1.82378522E-08
  1 1082 1.88904434E-08
  1 1083 1.90721408E-08
  1 1084 1.92356043E-08
  1 1085 1.99797829E-08
  1 1086 2.08861923E-08
  1 1087 2.11063594E-08
  1 1088 2.07421806E-08
  1 1089 2.06798029E-08
  1 1090 2.11549377E-08
  1 1091 2.14700680E-08
  1 1092 2.12924853E-08
  1 1093 2.12588530E-08
  1 1094 2.18297605E-08
  1 1095 2.23772111E-08
  1 1096 2.21215654E-08
  1 1097 2.13757950E-08
  1 1098 2.10130917E-08
  1 1099 2.10827363E-08
  1 1100 2.09145789E-08
  1 1101 1.89743126E-08
  1 1102 1.83265234E-08
  1 1103 1.73182055E-08
  1 1104 1.67969559E-08
  1 1105 1.66964431E-08
  1 1106 1.61909118E-08
  1 1107 1.51179238E-08
  1 1108 1.42523024E-08
  1 1109 1.39903586E-08
  1 1110 1.37211107E-08
  1 1111 1.29645131E-08
  1 1112 1.23057327E-08
  1 1113 1.24897134E-08
  1 1114 1.31937020E-08
  1 1115 1.35614865E-08
  1 1116 1.35859524E-08
  1 1117 1.39953168E-08
  1 1118 1.48773038E-08
  1 1119 1.54374206E-08
  1 1120 1.53266454E-08
  1 1121 1.52591605E-08
  1 1122 1.58368395E-08
  1 1123 1.65624603E-08
  1 1124 1.67065526E-08
  1 1125 1.65338666E-08
  1 1126 1.68016791E-08
  1 1127 1.74207074E-08
  1 1128 1.76056275E-08
  1 1129 1.72724334E-08
  1 1130 1.72762957E-08
  1 1131 1.80470748E-08
  1 1132 1.89155228E-08
  1 1133 1.92475135E-08
  1 1134 1.94304513E-08
  1 1135 2.00444484E-08
  1 1136 2.06920962E-08
  1 1137 2.05562264E-08
  1 1138 1.97781185E-08
  1 1139 1.93073393E-08
  1 1140 1.94528097E-08
  1 1141 1.95587665E-08
  1 1142 1.92908318E-08
  1 1143 1.92745006E-08
  1 1144 1.99771128E-08
  1 1145 2.07798388E-08
  1 1146 2.08917168E-08
  1 1147 2.06050221E-08
  1 1148 2.07829354E-08
  1 1149 2.14588826E-08
  1 1150 2.19061630E-08
  1 1151 2.19893229E-08
  1 1152 2.24143967E-08
  1 1153 2.34158220E-08
  1 1154 2.41480119E-08
  1 1155 2.38881397E-08
  1 1156 2.30752148E-08
  1 1157 2.24812065E-08
  1 1158 2.19712947E-08
  1 1159 2.09576538E-08
  1 1160 1.96969444E-08
  1 1161 1.91110793E-08
  1 1162 1.93549933E-08
  1 1163 1.95474337E-08
  1 1164 1.91451164E-08
  1 1165 1.86725186E-08
  1 1166 1.86454552E-08
  1 1167 1.86081615E-08
  1 1168 1.79643635E-08
  1 1169 1.71516660E-08
  1 1170 1.70767708E-08
  1 1171 1.76974304E-08
  1 1172 1.81214899E-08
  1 1173 1.80394287E-08
  1 1174 1.80733155E-08
  1 1175 1.85192706E-08
  1 1176 1.87197005E-08
  1 1177 1.81932158E-08
  1 1178 1.75864899E-08
  1 1179 1.77667439E-08
  1 1180 1.85307241E-08
  1 1181 1.90653494E-08
  1 1182 1.93250927E-08
  1 1183 1.99698613E-08
  1 1184 2.10220931E-08
  1 1185 2.16222329E-08
  1 1186 2.13716173E-08
  1 1187 2.09958793E-08
  1 1188 2.11807000E-08
  1 1189 2.15268822E-08
  1 1190 2.13524504E-08
  1 1191 2.09168009E-08
  1 1192 2.09535895E-08
  1 1193 2.13386244E-08
  1 1194 2.12284162E-08
  1 1195 2.04845308E-08
  1 1196 1.99695746E-08
  1 1197 2.01959657E-08
  1 1198 2.05969866E-08
  1 1199 2.06069613E-08
  1 1200 2.06478457E-08
  1 1201 1.74151938E-08
  1 1202 1.69973348E-08
  1 1203 1.71866885E-08
  1 1204 1.72004772E-08
  1 1205 1.63649682E-08
  1 1206 1.51657462E-08
  1 1207 1.44285138E-08
  1 1208 1.40500140E-08
  1 1209 1.34155352E-08
  1 1210 1.27073910E-08
  1 1211 1.27714545E-08
  1 1212 1.37064065E-08
  1 1213 1.45809538E-08
  1 1214 1.48063932E-08
  1 1215 1.48929918E-08
  1 1216 1.53821641E-08
  1 1217 1.58467059E-08
  1 1218 1.56845612E-08
  1 1219 1.53042615E-08
  1 1220 1.55951196E-08
  1 1221 1.65142224E-08
  1 1222 1.71660421E-08
  1 1223 1.72390607E-08
  1 1224 1.73826204E-08
  1 1225 1.79484205E-08
  1 1226 1.83182908E-08
  1 1227 1.80007882E-08
  1 1228 1.76002335E-08
  1 1229 1.79417330E-08
  1 1230 1.87824116E-08
  1 1231 1.92635501E-08
  1 1232 1.93117327E-08
  1 1233 1.96149392E-08
  1 1234 2.02753415E-08
  1 1235 2.05160844E-08
  1 1236 1.99908246E-08
  1 1237 1.94568884E-08
  1 1238 1.96227921E-08
  1 1239 2.00859990E-08
  1 1240 2.01235573E-08
  1 1241 1.99478821E-08
  1 1242 2.02814420E-08
  1 1243 2.10203168E-08
  1 1244 2.13325316E-08
  1 1245 2.10647547E-08
  1 1246 2.10549259E-08
  1 1247 2.17859520E-08
  1 1248 2.26340464E-08
  1 1249 2.29450043E-08
  1 1250 2.30636976E-08
  1 1251 2.35647838E-08
  1 1252 2.40576209E-08
  1 1253 2.36896575E-08
  1 1254 2.25515658E-08
  1 1255 2.16041826E-08
  1 1256 2.12304180E-08
  1 1257 2.08280104E-08
  1 1258 2.00548012E-08
  1 1259 1.95191469E-08
  1 1260 1.97024870E-08
  1 1261 1.99871231E-08
  1 1262 1.95267684E-08
  1 1263 1.85543379E-08
  1 1264 1.79525808E-08
  1 1265 1.78441460E-08
  1 1266 1.75823133E-08
  1 1267 1.70794167E-08
  1 1268 1.71051433E-08
  1 1269 1.79782002E-08
  1 1270 1.88815715E-08
  1 1271 1.90211542E-08
  1 1272 1.87290726E-08
  1 1273 1.87162883E-08
  1 1274 1.88234471E-08
  1 1275 1.84242412E-08
  1 1276 1.77422959E-08
  1 1277 1.77342147E-08
  1 1278 1.86413656E-08
  1 1279 1.96235207E-08
  1 1280 2.00858964E-08
  1 1281 2.04656624E-08
  1 1282 2.12114518E-08
  1 1283 2.17966355E-08
  1 1284 2.15248786E-08
  1 1285 2.07666321E-08
  1 1286 2.04756032E-08
  1 1287 2.07479153E-08
  1 1288 2.08202987E-08
  1 1289 2.04571657E-08