# File generated by Flopy version 3.5.0 on 03/08/2024 at 15:39:53.
BEGIN griddata
  strt
    INTERNAL  FACTOR  1.0
        15.00000000      15.00000000      15.00000000      15.00000000      15.00000000      15.00000000      15.00000000      15.00000000      15.00000000      15.00000000      15.00000000      15.00000000      15.00000000      15.00000000      15.00000000      15.00000000      15.00000000      15.00000000      15.00000000      15.00000000
        15.00000000      15.00000000      15.00000000      15.00000000      15.00000000      15.00000000      15.00000000      15.00000000      15.00000000      15.00000000      15.00000000      15.00000000      15.00000000      15.00000000      15.00000000      15.00000000      15.00000000      15.00000000      15.00000000      15.00000000
        15.00000000      15.00000000      15.00000000      15.00000000      15.00000000      15.00000000      15.00000000      15.00000000      15.00000000      15.00000000      15.00000000      15.00000000      15.00000000      15.00000000      15.00000000      15.00000000      15.00000000      15.00000000      15.00000000      15.00000000
        15.00000000      15.00000000      15.00000000      15.00000000      15.00000000      15.00000000      15.00000000      15.00000000      15.00000000      15.00000000      15.00000000      15.00000000      15.00000000      15.00000000      15.00000000      15.00000000      15.00000000      15.00000000      15.00000000      15.00000000
        15.00000000      15.00000000      15.00000000      15.00000000      15.00000000      15.00000000      15.00000000      15.00000000      15.00000000      15.00000000      15.00000000      15.00000000      15.00000000      15.00000000      15.00000000      15.00000000      15.00000000      15.00000000      15.00000000      15.00000000
        15.38197570      15.34383336      15.32867454      15.32706163      15.32031988      15.29367858      15.27583524      15.24579527      15.20569344      15.18842848      15.19479728      15.21352141      15.22054124      15.21490671      15.19439036      15.17772377      15.15840405      15.14451283      15.13413841      15.13054056
        15.13017436      15.13331631      15.13442163      15.14003113      15.14077011      15.14104844      15.13652158      15.13052194      15.11862565      15.10630290      15.08848003      15.07042136      15.06051868      15.05614100      15.05363784      15.05287574      15.05187888      15.05003056      15.04665003      15.04162724
        15.03628532      15.03622813      15.03520283      15.03332392      15.02943830      15.02923303      15.03227143      15.03785202      15.04455679      15.05050939      15.05211293      15.05119123      15.04943875      15.04802775      15.04879061      15.05321408      15.05636501      15.05806660      15.05811865      15.05672578
        15.05752790      15.06015373      15.06143718      15.06330843      15.06689878      15.07132981      15.07524997      15.07760791      15.07888680      15.07871801      15.07612049      15.07162825      15.06903255      15.06910297      15.06973789      15.07047906      15.07097902      15.07571195      15.07897154      15.07769524
        15.07516543      15.07487827      15.07363582      15.07397069      15.06981430      15.06216020      15.05796262      15.05543610      15.05019483      15.04587364      15.04393076      15.04129961      15.03922700      15.03849914      15.03922129      15.04139595      15.04478558      15.04860713      15.05128933      15.05178165
        15.65761256      15.65866120      15.66134139      15.65429881      15.62499777      15.58747451      15.55857692      15.52988298      15.48151732      15.44775773      15.42624762      15.41168839      15.39474243      15.37020373      15.34128700      15.31333513      15.28124422      15.25319923      15.23924503      15.23109214
        15.22374505      15.21581586      15.20966878      15.20727837      15.20784634      15.20488647      15.20121482      15.19378196      15.18325454      15.17479105      15.16330247      15.14587005      15.13004100      15.11669559      15.10605182      15.10317173      15.10143410      15.10133810      15.10005323      15.09712183
        15.09348406      15.09467517      15.09293687      15.08498557      15.07552101      15.06777834      15.06784770      15.07545451      15.08572150      15.09383577      15.09955258      15.10071312      15.09866053      15.09332633      15.08872847      15.08562216      15.08423678      15.08318393      15.08317976      15.08309362
        15.08492118      15.08873801      15.09230928      15.09639088      15.10356191      15.10956765      15.11513526      15.12018797      15.12306840      15.12479013      15.12541361      15.12413257      15.11962791      15.11604298      15.11521256      15.11470126      15.11275746      15.11235970      15.11325173      15.11403300
        15.11566582      15.11678660      15.11853169      15.12091687      15.11794006      15.10793950      15.10195541      15.09794509      15.09229163      15.08660949      15.08335779      15.08087604      15.07919602      15.07645426      15.07410657      15.07456982      15.07643336      15.07898370      15.08326349      15.08710660
        15.94286664      15.95307826      15.96377315      15.96169914      15.94530471      15.89774178      15.83682586      15.78415829      15.73125747      15.68243662      15.64657603      15.60819444      15.56597163      15.51444292      15.46711893      15.42349194      15.37823274      15.33845927      15.31866585      15.30308100
        15.28908439      15.27606721      15.26618129      15.25875248      15.25468818      15.24971277      15.24414515      15.23876902      15.22797530      15.21519239      15.20410548      15.19025204      15.17513410      15.16195711      15.15028109      15.14490557      15.14175676      15.14096423      15.14241221      15.14490269
        15.14845851      15.15278369      15.15591321      15.15620375      15.15504923      15.14846454      15.14318512      15.14164820      15.14583635      15.15260335      15.15849236      15.15340266      15.14340158      15.13395533      15.12318812      15.11543198      15.11193438      15.10949211      15.10662060      15.10570146
        15.10705262      15.11039307      15.11472179      15.12036945      15.12698621      15.13483825      15.14357845      15.15128812      15.15636945      15.16010448      15.16111563      15.15755872      15.15463117      15.15226107      15.15060072      15.14966894      15.14867285      15.14700821      15.14990887      15.15154739
        15.15094384      15.14921892      15.15102214      15.15384772      15.15359076      15.14797377      15.14107730      15.13556308      15.12852320      15.12155174      15.11747791      15.11663287      15.11645604      15.11413131      15.11236439      15.11590863      15.11688250      15.11303015      15.11258626      15.11427090
        16.26476876      16.26634786      16.27187732      16.27155870      16.25825424      16.20706011      16.13277659      16.05440679      15.96448692      15.87863003      15.80934890      15.74878033      15.69589652      15.63938686      15.57902493      15.52107062      15.46436034      15.41193902      15.37960379      15.35946157
        15.34207933      15.32790904      15.31593480      15.30496605      15.29562769      15.28806444      15.28179375      15.27656915      15.26683466      15.25399633      15.24056731      15.22473512      15.20794053      15.19355595      15.18092226      15.17366782      15.17194884      15.17313390      15.17741591      15.18361857
        15.19020374      15.19743650      15.20585967      15.21568609      15.22447512      15.22806799      15.22628244      15.22217570      15.22002077      15.22434297      15.22933542      15.22396805      15.20992284      15.19340805      15.17406494      15.15812320      15.14770780      15.14196245      15.13858354      15.13835256
        15.13679543      15.13784523      15.14046733      15.14422711      15.15148641      15.16129292      15.17192711      15.18179383      15.19086527      15.19695095      15.19911642      15.19714199      15.19421427      15.19149505      15.18802751      15.18660635      15.18783212      15.18963804      15.19233485      15.19272146
        15.19043822      15.18879146      15.18796160      15.18720279      15.18670848      15.18477932      15.18094269      15.17911405      15.17679746      15.17250585      15.16867927      15.16515003      15.16129082      15.16076140      15.16359926      15.16632119      15.16854803      15.16641628      15.16508659      15.16446579
        16.60509215      16.59670748      16.58105981      16.55600257      16.51825294      16.45669785      16.37161257      16.28010753      16.16655879      16.06353682      15.98152951      15.90880604      15.83633652      15.76517470      15.68655931      15.61543483      15.54459414      15.48209487      15.43898045      15.41367852
        15.39413838      15.38161128      15.37747593      15.37067008      15.35836988      15.34534142      15.33358258      15.32157244      15.30916173      15.29413980      15.28460159      15.27319089      15.25907953      15.24176722      15.22429582      15.21080386      15.20442831      15.20248328      15.20723977      15.21732756
        15.22812354      15.23895975      15.24979487      15.25921157      15.26960136      15.27902864      15.28479558      15.28741656      15.28668892      15.28867615      15.29178147      15.29218211      15.28598645      15.27360280      15.25640758      15.23684589      15.21562940      15.19698193      15.18492172      15.18043243
        15.17745484      15.17532068      15.17538738      15.17605267      15.18193058      15.19099566      15.20062796      15.21212337      15.22350859      15.23161991      15.23759182      15.24035737      15.23837057      15.23468058      15.23068002      15.22647441      15.22383517      15.22287708      15.22102194      15.21937477
        15.21974176      15.22173065      15.22189311      15.22024982      15.21940929      15.21888556      15.21894408      15.22036353      15.22064983      15.21946672      15.21886357      15.21582431      15.21335057      15.21379453      15.21846851      15.22218600      15.22507150      15.22582680      15.22647477      15.22685069
        16.90506451      16.89122991      16.86975994      16.83522854      16.79102557      16.71975342      16.59398951      16.47472113      16.35803025      16.23412018      16.13435909      16.06418528      15.98460096      15.90204941      15.81625025      15.72978450      15.64330930      15.56308293      15.50865689      15.47458703
        15.45639511      15.44860960      15.44823788      15.44359260      15.43392234      15.42171444      15.40991805      15.39355640      15.37340363      15.35101581      15.33809775      15.33327582      15.32625385      15.31904248      15.30776237      15.28794443      15.26492578      15.25128074      15.24677090      15.25164764
        15.26187038      15.27478016      15.28785378      15.29816897      15.30590884      15.31226504      15.31780445      15.32297136      15.32828282      15.33294850      15.33877941      15.34202210      15.34079280      15.33583898      15.32818423      15.31408024      15.29313871      15.26469161      15.23978137      15.22656733
        15.22098703      15.21812021      15.21829932      15.22039363      15.22210507      15.22431974      15.22943582      15.23828095      15.24780389      15.25673072      15.26313620      15.26794963      15.27014912      15.27203552      15.26920553      15.26225397      15.25523611      15.24837129      15.24199561      15.23828600
        15.23623534      15.23653308      15.23853826      15.24089696      15.24336608      15.24642401      15.24982655      15.25087681      15.25015656      15.24866916      15.24936544      15.25074189      15.25248421      15.25425822      15.25931238      15.26733545      15.27309160      15.27398036      15.27482387      15.27647066
        17.23729177      17.21328599      17.17003011      17.11032042      17.03518591      16.95746026      16.83887223      16.70683533      16.57691344      16.44082024      16.31367138      16.22523724      16.14139451      16.05266429      15.96722178      15.87175544      15.76415669      15.66340027      15.58946339      15.54471209
        15.51984905      15.50909873      15.50650529      15.50331725      15.49560040      15.48595074      15.47693542      15.46696373      15.45009682      15.43012959      15.41239318      15.39970975      15.38904888      15.38578244      15.38583437      15.37971247      15.36358612      15.34682268      15.32782993      15.31498105
        15.31338078      15.31743228      15.32498777      15.32871824      15.33137984      15.33500594      15.34064715      15.34653673      15.35342754      15.36186240      15.37027185      15.37441150      15.37575937      15.37422523      15.36934999      15.35790409      15.34211598      15.31952295      15.29416150      15.27809459
        15.26736044      15.26193785      15.26270493      15.26594120      15.26664641      15.26730047      15.26819648      15.27198033      15.27933243      15.28641894      15.29169014      15.29617987      15.29868853      15.29832008      15.29424235      15.28790664      15.28262894      15.27552916      15.26698161      15.26055728
        15.25608054      15.25419192      15.25508177      15.25814887      15.26331831      15.26874458      15.27124124      15.27253732      15.27326442      15.27365994      15.27370023      15.27541736      15.27661310      15.27921457      15.28552683      15.29363215      15.29940988      15.30248294      15.30413638      15.30536584
        17.62531266      17.59968116      17.54268560      17.47457335      17.37260150      17.24437392      17.11259925      16.97013432      16.83500008      16.69762242      16.57377926      16.46422814      16.37117867      16.27228171      16.17214151      16.07944156      15.97774492      15.85363280      15.74213288      15.66014862
        15.60547813      15.57275144      15.55997477      15.55985395      15.55525919      15.55022039      15.54163915      15.53124480      15.52092477      15.51059529      15.49605759      15.48117897      15.46549378      15.45506962      15.45181767      15.45128131      15.44629677      15.43403893      15.41474379      15.39867252
        15.38924478      15.38262724      15.38008035      15.37498514      15.37000773      15.37025367      15.37314099      15.37687124      15.38500066      15.39281257      15.39928955      15.40224723      15.40223527      15.40104236      15.39715838      15.38800051      15.37420510      15.35723127      15.33730887      15.32086200
        15.30992925      15.30410448      15.30558078      15.30911318      15.31342513      15.31893848      15.32114363      15.32018115      15.32382122      15.32785371      15.33135956      15.33437888      15.33270759      15.32666583      15.32077552      15.31295062      15.30591566      15.30048861      15.29363266      15.28700477
        15.28203118      15.27911225      15.27798591      15.28174059      15.28727026      15.29206481      15.29450387      15.29672762      15.29855350      15.29943979      15.30100283      15.30358748      15.30501232      15.30615311      15.30874408      15.31141920      15.31428723      15.31747236      15.32038501      15.32201685
        17.93190482      17.91586622      17.88877761      17.84649001      17.76894287      17.64019209      17.49328730      17.33528244      17.19998576      17.08474600      16.96979816      16.88280078      16.76746294      16.61998781      16.47953294      16.36167515      16.23765911      16.09902446      15.95941238      15.84372441
        15.76357312      15.71285447      15.68585858      15.67403989      15.67576737      15.67538792      15.66954769      15.65357791      15.63142415      15.60180285      15.57552249      15.55794353      15.54496478      15.53255948      15.52465068      15.51471721      15.50046551      15.48758984      15.47510940      15.46374022
        15.45296448      15.44360829      15.43935894      15.43868697      15.43635735      15.43588580      15.43514938      15.43511415      15.43653851      15.43946869      15.44067578      15.43955085      15.43387274      15.42735466      15.42311519      15.41522811      15.40326526      15.38804795      15.37213748      15.35887130
        15.35023884      15.34389419      15.34288064      15.34626242      15.35342363      15.36194681      15.37093174      15.37320134      15.37328238      15.37196945      15.37119961      15.37137668      15.36806265      15.36130945      15.35333441      15.34503600      15.33863526      15.33550834      15.32934422      15.32287129
        15.31667605      15.31161681      15.30910494      15.31209651      15.31558105      15.31885818      15.32162825      15.32306789      15.32425465      15.32649140      15.32880781      15.33106778      15.33255565      15.33329878      15.33460402      15.33635757      15.33657932      15.33604391      15.33684077      15.33836717
        18.15471899      18.14226581      18.12031057      18.08969515      18.03135109      17.93981305      17.81811128      17.68589777      17.56079597      17.46410869      17.36815124      17.31098332      17.22396878      17.07287213      16.89821040      16.71448112      16.50193850      16.31426390      16.15677506      16.02008693
        15.93923598      15.88204653      15.84051975      15.82193185      15.82591277      15.83078342      15.83225988      15.81989153      15.78823849      15.73887010      15.68894691      15.65287765      15.62801630      15.61091108      15.59395467      15.57925218      15.55860213      15.54141416      15.52253461      15.50803508
        15.49740556      15.49019971      15.48742932      15.49195027      15.49687570      15.49997929      15.50054713      15.49924670      15.49620081      15.49453536      15.48921784      15.48245213      15.47653148      15.46984277      15.46282181      15.45236745      15.43952872      15.42595082      15.41269962      15.40181012
        15.39704327      15.39253316      15.38835212      15.38659788      15.38853658      15.39634810      15.40598790      15.41086824      15.41109336      15.41058466      15.40976541      15.40813513      15.40473531      15.39982236      15.39390144      15.38831184      15.38501494      15.38264083      15.37508046      15.36753006
        15.36047898      15.35236168      15.34660771      15.34486246      15.34553267      15.34745178      15.34938493      15.34975075      15.35002278      15.35090468      15.35156112      15.35317192      15.35514310      15.35664557      15.35829499      15.35997478      15.35900552      15.35746425      15.35629734      15.35614039
        18.37234856      18.35582760      18.30258754      18.25199165      18.18421549      18.08647652      17.98217344      17.87642412      17.77309346      17.68023703      17.59750998      17.53492018      17.48174480      17.38817232      17.24390509      17.04442433      16.79663077      16.55534253      16.36159916      16.19432363
        16.10992609      16.05257486      16.00329254      15.96939278      15.95112412      15.94216320      15.94203997      15.93539067      15.91068173      15.87466522      15.82693334      15.77945874      15.73991113      15.71374369      15.68852596      15.66736389      15.63742323      15.60838103      15.58183729      15.56162072
        15.54718555      15.53719696      15.53149436      15.53044384      15.53179656      15.53509547      15.53882482      15.53936711      15.53872264      15.53546074      15.52974153      15.52342750      15.52006065      15.51591139      15.50847773      15.49786772      15.48456764      15.47131531      15.45987501      15.44999572
        15.44632795      15.44629973      15.44433844      15.43989707      15.43555011      15.43482292      15.43641691      15.43743429      15.44004167      15.44365206      15.44599597      15.44574133      15.44287868      15.43855946      15.43653191      15.43444309      15.43041050      15.42492258      15.41729264      15.40679740
        15.39889390      15.39115595      15.38374313      15.37870733      15.37528227      15.37333611      15.37249458      15.37229084      15.37170923      15.37046693      15.37004972      15.37128794      15.37272727      15.37413213      15.37547681      15.37616555      15.37481150      15.37330050      15.37172440      15.37020066
        18.62104097      18.59065816      18.51814202      18.44128004      18.36114592      18.24823948      18.11958139      18.00467503      17.90292555      17.82082509      17.74540353      17.67249640      17.60854008      17.51826988      17.39892182      17.23484541      17.02527764      16.80333086      16.59813841      16.41876840
        16.30490766      16.22681564      16.17142321      16.12625878      16.08398938      16.04854059      16.02943247      16.01727946      15.99736170      15.96901240      15.93294464      15.89166410      15.85296039      15.81945042      15.79529573      15.77502056      15.74345449      15.70321938      15.66733385      15.63551546
        15.60892300      15.59326492      15.58202980      15.57233244      15.56736059      15.56393256      15.56429429      15.56604688      15.56622451      15.56575454      15.56274835      15.55821821      15.55201153      15.54491424      15.53795425      15.53097662      15.52100592      15.50961012      15.49849006      15.49099309
        15.48820450      15.48858624      15.48758704      15.48442553      15.48128503      15.47681958      15.47408174      15.47210614      15.47258701      15.47423509      15.47594365      15.47600896      15.47708154      15.47510978      15.47094141      15.46426921      15.45714858      15.45192660      15.44756383      15.43848888
        15.42799174      15.41960737      15.41102181      15.40452442      15.39970001      15.39583082      15.39383165      15.39289915      15.39012390      15.38761256      15.38594205      15.38476138      15.38438784      15.38557480      15.38782432      15.38930006      15.38883608      15.38719924      15.38600872      15.38544156
        18.95849837      18.94796057      18.88346070      18.76894957      18.63816993      18.48138132      18.30218512      18.16626522      18.05790221      17.97268356      17.89409469      17.82119784      17.75286867      17.65847340      17.52019761      17.36164647      17.17627266      16.97855865      16.79084496      16.61609728
        16.48010280      16.38300981      16.31008864      16.25841072      16.21110194      16.15900227      16.11886142      16.09551437      16.07260992      16.04166476      16.00672147      15.97018241      15.93572790      15.90264601      15.87519068      15.85730472      15.83734055      15.80844866      15.77542105      15.73426948
        15.68885270      15.65996605      15.64237939      15.63253122      15.62521290      15.61673996      15.60639916      15.60101152      15.59569368      15.59315960      15.59136494      15.58699098      15.57972057      15.57171259      15.56205648      15.55386497      15.54437662      15.53399127      15.52448500      15.51848582
        15.51759456      15.51797381      15.51706497      15.51591678      15.51526320      15.51332906      15.51115264      15.50912115      15.50706924      15.50732762      15.50759446      15.50568075      15.50418109      15.50301162      15.49891755      15.49244354      15.48424744      15.47677869      15.46997114      15.46185974
        15.45143435      15.44115168      15.43062802      15.42249094      15.41632918      15.41258304      15.41138777      15.41100662      15.41024200      15.40813852      15.40453211      15.40038218      15.39838081      15.39853528      15.39964078      15.40158251      15.40226592      15.40159976      15.40169269      15.40252518
        19.30815701      19.30747335      19.25131632      19.15132875      19.02411014      18.85571135      18.62701099      18.41856826      18.24068051      18.13240873      18.05413985      17.97837509      17.89373105      17.79536367      17.64610367      17.47582335      17.29393017      17.09789015      16.91869573      16.74596582
        16.59641862      16.49066920      16.41717345      16.36163729      16.31613200      16.25883381      16.20408287      16.16298330      16.12596310      16.08895264      16.05568353      16.02180879      15.98720445      15.95619115      15.92706289      15.90670683      15.89229241      15.87514400      15.85415983      15.82852861
        15.78816723      15.74625569      15.71659259      15.70413822      15.69610067      15.68718607      15.67750037      15.66670627      15.65411570      15.64247584      15.63265201      15.62520467      15.62146633      15.61583007      15.60871940      15.60009606      15.58892625      15.57190243      15.55773341      15.54935720
        15.54626812      15.54609799      15.54582228      15.54665367      15.55021122      15.55248323      15.55021361      15.54587042      15.54310688      15.54184797      15.53937303      15.53512274      15.53008229      15.52631880      15.52124862      15.51502703      15.50775116      15.50034492      15.49294025      15.48355098
        15.47298918      15.46274582      15.45104788      15.44093786      15.43363805      15.42833601      15.42679083      15.42721888      15.42726102      15.42594691      15.42464275      15.42439509      15.42344597      15.42209897      15.41981585      15.41871119      15.41911565      15.41989624      15.42000700      15.41975208
        19.58539839      19.56064773      19.50581395      19.41667266      19.29631238      19.13224473      18.91839390      18.71011692      18.50750257      18.34980182      18.25409356      18.16483537      18.06335461      17.94292011      17.78033142      17.58774212      17.39345825      17.19236670      17.00919913      16.83593501
        16.68350547      16.56644206      16.48674032      16.43518328      16.39559055      16.35153498      16.29973631      16.24974885      16.19727653      16.14434712      16.09975977      16.06216555      16.02600199      15.99205440      15.96025106      15.93603475      15.92120033      15.90790775      15.89325610      15.87821849
        15.85588450      15.82743749      15.80283406      15.78172995      15.76995514      15.76191007      15.75742900      15.74714708      15.73335098      15.71870955      15.71003823      15.70021557      15.69242430      15.68737638      15.68530435      15.68209322      15.66928720      15.64888797      15.62920308      15.61130548
        15.59445979      15.58489141      15.58120087      15.58131192      15.58507811      15.58883183      15.58943298      15.58792931      15.58403247      15.57716843      15.57007295      15.56273926      15.55514052      15.54763735      15.53998239      15.53117976      15.52237479      15.51412731      15.50684633      15.49816223
        15.48804766      15.47933963      15.47006206      15.45869529      15.45094599      15.44607700      15.44391726      15.44405438      15.44426987      15.44497828      15.44675697      15.44841181      15.44813816      15.44844153      15.44689699      15.44424771      15.44098972      15.43888360      15.43714427      15.43618741
        19.80946310      19.78212128      19.72937637      19.64092551      19.51407108      19.34726199      19.12193072      18.88731863      18.70489692      18.55073579      18.43995827      18.35121792      18.24809979      18.11429285      17.92862252      17.71804159      17.51593455      17.30448349      17.10546678      16.92594744
        16.76637652      16.63962511      16.54432856      16.48470484      16.44560559      16.41177626      16.37259654      16.33146183      16.28346204      16.22623035      16.17229984      16.12661397      16.08130196      16.04134476      16.00545022      15.97359420      15.94890698      15.92699162      15.90981942      15.89556633
        15.87841202      15.85747674      15.84058660      15.82668699      15.81920445      15.81606771      15.81268100      15.80819630      15.79978669      15.78944426      15.78623286      15.78322073      15.77492709      15.77147459      15.76915595      15.76456593      15.75319416      15.73701174      15.71926863      15.70306405
        15.68084531      15.65670674      15.63934046      15.62845112      15.62199691      15.61873947      15.61985625      15.62198140      15.62025546      15.61184826      15.60216002      15.59192970      15.58144637      15.57213148      15.56147560      15.55009039      15.53915771      15.52871718      15.51854047      15.50926589
        15.49894260      15.48998527      15.48194445      15.47462470      15.46799704      15.46367737      15.46034034      15.46011307      15.46168105      15.46382486      15.46526288      15.46564964      15.46577917      15.46707792      15.46683350      15.46449063      15.46091143      15.45762538      15.45482966      15.45358535
        19.96195389      19.95232046      19.91572985      19.84043626      19.71677854      19.54226050      19.31446679      19.06787610      18.85567538      18.68662154      18.55695570      18.46371005      18.37336738      18.25906295      18.07937521      17.84732697      17.61629379      17.38886580      17.18025193      17.01150720
        16.85081195      16.71147607      16.60533882      16.53583869      16.48872053      16.45215025      16.41481438      16.37884206      16.34020505      16.29215301      16.24234303      16.19922174      16.15460690      16.11212083      16.07261893      16.03518338      16.00531201      15.97647596      15.94844687      15.92730056