# File generated by Flopy version 3.5.0 on 03/08/2024 at 15:39:53.
BEGIN options
END options

BEGIN griddata
  icelltype
    CONSTANT  0
  k
    INTERNAL  FACTOR  1.0
    4.68895087E-05  7.74156998E-05  8.97925015E-05  8.42960889E-05  5.78602643E-05  7.37968990E-05  1.02101526E-04  1.56380023E-04  2.66628627E-04  3.36194683E-04  2.98134565E-04  2.82169757E-04  2.68403977E-04  2.50653191E-04  3.11707547E-04  3.06873964E-04  2.79909347E-04  3.31583812E-04  3.02921997E-04  2.05433914E-04
    1.26627842E-04  9.59932899E-05  8.47264799E-05  6.20969596E-05  5.10442810E-05  5.52183681E-05  6.18302606E-05  3.94149888E-05  4.17114688E-05  6.05197013E-05  1.09389388E-04  2.02316095E-04  2.77585983E-04  2.77492273E-04  3.15808964E-04  2.24531929E-04  2.13154168E-04  2.50920561E-04  2.36819975E-04  2.06671978E-04
    1.67419617E-04  1.21122728E-04  9.78644021E-05  1.11076338E-04  1.41464917E-04  1.53523664E-04  1.22605197E-04  9.05534681E-05  7.33995243E-05  5.98538740E-05  5.96362720E-05  6.32236219E-05  6.82986746E-05  7.73263521E-05  1.00846270E-04  7.53635412E-05  6.60145885E-05  5.33639536E-05  7.45157484E-05  1.55976132E-04
    2.12947516E-04  2.16128067E-04  2.41893013E-04  2.87349163E-04  2.20274660E-04  1.67262948E-04  1.27334488E-04  9.24739849E-05  5.95669180E-05  4.47069215E-05  3.57681014E-05  4.01790288E-05  2.84595550E-05  2.12006065E-05  1.89367083E-05  1.54639583E-05  1.56413694E-05  1.33863559E-05  1.39714235E-05  1.73952197E-05
    2.24032173E-05  2.32494642E-05  2.59969705E-05  2.22283851E-05  2.75302865E-05  4.92904762E-05  8.32840382E-05  8.44782133E-05  1.25239219E-04  1.98121591E-04  2.04690734E-04  2.27811407E-04  2.54587445E-04  3.15464584E-04  2.82977513E-04  1.55775312E-04  1.42058230E-04  1.45543192E-04  1.38245329E-04  1.34706190E-04
    9.63465496E-05  6.07673404E-05  5.95115848E-05  5.37824630E-05  6.43331396E-05  6.95714335E-05  9.42969813E-05  8.32721007E-05  1.55673823E-04  2.59853259E-04  5.01659707E-04  6.52944499E-04  5.50186175E-04  3.73046184E-04  3.79542614E-04  3.69520206E-04  3.15313172E-04  4.67051254E-04  3.84236272E-04  2.54927225E-04
    1.59638153E-04  1.79489749E-04  1.91634409E-04  1.98166062E-04  1.17174627E-04  1.46153289E-04  1.21124036E-04  9.46625878E-05  7.30316688E-05  7.56402253E-05  8.43784565E-05  9.53139133E-05  1.33190065E-04  2.03475993E-04  3.75144237E-04  2.96294597E-04  2.09030960E-04  1.58399700E-04  1.20985050E-04  1.07876624E-04
    1.49643314E-04  9.20067157E-05  7.08205518E-05  7.69735046E-05  1.25478666E-04  1.50219815E-04  1.83265603E-04  1.41591225E-04  8.15809921E-05  4.61434738E-05  2.89871493E-05  3.16014056E-05  5.15335686E-05  8.38054363E-05  9.51285105E-05  1.14286248E-04  1.33227905E-04  1.84220805E-04  2.18448753E-04  3.81558659E-04
    4.68057063E-04  4.31199829E-04  4.21583873E-04  6.24540499E-04  3.84028570E-04  3.57517549E-04  2.57405337E-04  1.67117426E-04  1.14594442E-04  8.95709391E-05  5.43045448E-05  2.61805378E-05  1.69802390E-05  1.40411370E-05  1.51694339E-05  1.72641949E-05  2.06704489E-05  2.09358870E-05  3.13988026E-05  2.94349048E-05
    3.20213134E-05  2.91819627E-05  2.76703127E-05  1.90709076E-05  2.20197250E-05  5.39146988E-05  8.04326201E-05  7.95946657E-05  9.76303876E-05  1.62958334E-04  1.88606999E-04  1.83415748E-04  2.13701445E-04  2.77017828E-04  2.47041895E-04  2.17250614E-04  1.94562604E-04  2.88942912E-04  1.99386558E-04  1.26365121E-04
    9.52306586E-05  6.95433889E-05  7.08642862E-05  7.57121598E-05  6.52635518E-05  6.31262497E-05  9.57226799E-05  1.09676678E-04  1.24493454E-04  1.46715737E-04  1.89093502E-04  3.47657494E-04  4.43300586E-04  5.51867387E-04  5.23606584E-04  5.41962037E-04  4.49252485E-04  5.60237000E-04  4.25507999E-04  3.32366344E-04
    2.46879731E-04  2.54181342E-04  2.14699489E-04  2.36335139E-04  2.18874261E-04  2.64204952E-04  3.13134424E-04  1.68743761E-04  1.39891968E-04  2.04096885E-04  1.68281044E-04  1.28740195E-04  1.58277665E-04  2.15453286E-04  3.02435850E-04  2.36619094E-04  2.31541957E-04  2.34353000E-04  1.60627312E-04  1.00010197E-04
    5.90442516E-05  4.61494170E-05  3.23590404E-05  4.12250491E-05  4.24491174E-05  5.64698792E-05  7.01072946E-05  7.49452374E-05  7.23980718E-05  6.83365614E-05  4.07068044E-05  3.42281840E-05  4.31280928E-05  5.60007110E-05  8.88521197E-05  1.48111973E-04  1.88108820E-04  1.59235820E-04  2.70402575E-04  4.58281724E-04
    6.73010620E-04  9.90514251E-04  8.94481466E-04  7.97753595E-04  6.61527960E-04  4.87879933E-04  4.09566139E-04  2.61562591E-04  1.38893131E-04  9.13235984E-05  5.84149841E-05  5.06258114E-05  2.66547388E-05  2.20241062E-05  2.38437799E-05  2.26001057E-05  2.15263668E-05  3.51861076E-05  5.14156677E-05  5.20333707E-05
    4.15975332E-05  4.29409932E-05  3.40902967E-05  2.62186611E-05  2.77195308E-05  4.98673652E-05  8.87451060E-05  1.05011880E-04  1.27513890E-04  1.87649216E-04  2.09786634E-04  1.87633186E-04  1.85735673E-04  2.57125461E-04  2.78056901E-04  1.70513609E-04  1.94961350E-04  2.84446889E-04  3.36569702E-04  2.43652356E-04
    8.02226360E-05  5.85740298E-05  6.53592815E-05  5.92979256E-05  5.18064077E-05  5.07517449E-05  8.73602566E-05  1.04384599E-04  1.58146764E-04  2.88682733E-04  5.44255367E-04  7.03936538E-04  6.45049341E-04  4.54998891E-04  4.86160086E-04  5.48453908E-04  4.50376321E-04  5.71853061E-04  5.84096855E-04  4.99215348E-04
    3.45522005E-04  3.38472395E-04  3.43738907E-04  3.38194659E-04  2.79062319E-04  3.07221342E-04  2.59587841E-04  1.80470805E-04  1.32237850E-04  2.04229965E-04  2.89270372E-04  2.72273561E-04  3.70767669E-04  4.00691176E-04  4.12264625E-04  4.28333240E-04  2.91648498E-04  2.70003351E-04  2.01584485E-04  1.46177061E-04
    1.20275027E-04  8.38216955E-05  5.17212360E-05  3.18831523E-05  2.35817338E-05  1.73801466E-05  2.04913483E-05  3.08016424E-05  3.55258724E-05  2.65619147E-05  1.80362489E-05  2.09721966E-05  4.99242165E-05  7.23504504E-05  9.22399805E-05  9.73065897E-05  1.05692548E-04  1.14213296E-04  2.00866145E-04  3.68209351E-04
    4.72453654E-04  5.93345779E-04  6.43359442E-04  9.39226186E-04       0.00106315  9.18044773E-04  5.05195033E-04  3.37267862E-04  1.94605527E-04  1.53144089E-04  1.21297606E-04  6.33012616E-05  2.49743869E-05  1.52184530E-05  1.91309344E-05  2.40826019E-05  2.25354179E-05  2.11725872E-05  2.85786102E-05  2.56899749E-05
    3.63022996E-05  3.52871166E-05  3.74490914E-05  3.07851652E-05  3.12289917E-05  3.94031693E-05  6.61431323E-05  7.65663580E-05  9.93824679E-05  1.60091445E-04  1.91601207E-04  1.67514161E-04  2.11339812E-04  2.36680119E-04  1.50996671E-04  9.71133499E-05  8.72152416E-05  1.56254548E-04  1.87820775E-04  1.95196411E-04
    6.11645889E-05  4.96772340E-05  5.98532820E-05  6.40942827E-05  6.39836858E-05  5.66959425E-05  7.39935330E-05  8.77508796E-05  1.43195514E-04  2.00308584E-04  3.50790450E-04  6.40612706E-04  7.11971024E-04  6.26265412E-04  6.67492578E-04  6.83018403E-04  5.00822461E-04  5.10401218E-04  6.14804843E-04  4.51928894E-04
    3.40349086E-04  3.12111502E-04  2.49870679E-04  2.50548007E-04  3.09088681E-04  3.84939094E-04  4.12666534E-04  3.07625315E-04  2.41235808E-04  2.57765008E-04  2.50227713E-04  2.25310965E-04  2.68195561E-04  3.71392194E-04  4.21912979E-04  3.68053270E-04  3.32054581E-04  3.07419026E-04  2.23249880E-04  1.42215376E-04
    8.99375494E-05  7.62526600E-05  5.24757982E-05  6.15817994E-05  6.26685020E-05  3.50694138E-05  2.59807553E-05  2.54160340E-05  2.90912816E-05  2.96064386E-05  2.55473400E-05  1.93860693E-05  2.34477956E-05  3.09059375E-05  3.52874618E-05  4.58371137E-05  7.46816715E-05  8.11539622E-05  1.11761400E-04  1.74512876E-04
    2.72271361E-04  4.60416262E-04  4.78807698E-04  5.97787860E-04  5.29668090E-04  5.24167188E-04  5.50213846E-04  3.56128445E-04  1.43148805E-04  9.67757739E-05  6.40256120E-05  3.33432749E-05  2.11400273E-05  1.80396622E-05  1.88376842E-05  1.95747414E-05  2.07116889E-05  2.09649013E-05  4.12563836E-05  4.85767283E-05
    3.70666623E-05  2.45302309E-05  2.43112473E-05  2.57676472E-05  3.30106717E-05  4.81450279E-05  6.06161934E-05  5.90760533E-05  5.88486760E-05  7.44856456E-05  7.55845689E-05  8.41204491E-05  1.24678848E-04  1.41570431E-04  9.20091623E-05  8.05318371E-05  7.99105142E-05  7.62602950E-05  7.42691623E-05  6.85916908E-05
    6.02989271E-05  4.11758694E-05  5.31490149E-05  5.89601725E-05  7.09185503E-05  6.59574734E-05  1.18323770E-04  1.55805385E-04  2.28844321E-04  3.28429739E-04  5.96462376E-04  6.13772323E-04  5.64473529E-04  4.50842223E-04  5.07260896E-04  4.60541086E-04  3.62950611E-04  3.79970469E-04  4.02380698E-04  4.10786557E-04
    2.90934462E-04  2.76930123E-04  2.05018292E-04  1.64660917E-04  1.36839689E-04  1.59902016E-04  1.48754399E-04  1.60756142E-04  1.32222416E-04  1.93278015E-04  2.01195723E-04  1.45011839E-04  1.60705112E-04  1.95074408E-04  1.62444142E-04  1.69503839E-04  1.95602024E-04  2.56782160E-04  2.65553054E-04  2.12608124E-04
    1.47072128E-04  9.42072070E-05  6.29171676E-05  5.62711638E-05  6.59730590E-05  5.92211261E-05  5.96426511E-05  5.57237567E-05  3.79382745E-05  3.36770605E-05  3.22037821E-05  3.10324359E-05  3.75244064E-05  3.44830279E-05  2.40795439E-05  2.17239890E-05  2.66199303E-05  3.39658068E-05  6.91026810E-05  1.89625720E-04
    1.90850247E-04  2.74248619E-04  2.98808163E-04  3.76534600E-04  4.91684294E-04  5.88843056E-04  5.58462411E-04  5.01881925E-04  3.41389780E-04  2.37832018E-04  1.47437547E-04  5.82374099E-05  2.41303487E-05  1.49069069E-05  1.40096390E-05  1.83468138E-05  2.74942340E-05  3.75778712E-05  7.48463694E-05  7.79452982E-05
    9.52712044E-05  1.04043633E-04  6.69900152E-05  3.58973648E-05  3.34287855E-05  4.11164263E-05  4.76414523E-05  5.74449826E-05  8.66246535E-05  1.31319523E-04  1.28547442E-04  1.07174072E-04  1.06227222E-04  1.27353582E-04  9.18131609E-05  5.20416779E-05  5.41294142E-05  7.05633775E-05  7.11858226E-05  5.99140417E-05
    7.43719591E-05  5.46135686E-05  5.90221090E-05  5.55256261E-05  5.05610594E-05  4.58748302E-05  8.69682031E-05  1.43609735E-04  1.67906644E-04  2.45599028E-04  4.77440294E-04  6.16016733E-04  5.05464952E-04  5.17300722E-04  3.87926006E-04  3.37967673E-04  2.16766469E-04  2.28817892E-04  2.52454817E-04  2.65668194E-04
    1.68936186E-04  1.53616277E-04  1.95041123E-04  2.13028193E-04  1.82078832E-04  1.69549906E-04  1.41376851E-04  1.04855591E-04  1.05466071E-04  1.13065233E-04  1.58931355E-04  1.34011385E-04  1.61170165E-04  1.29689875E-04  7.95036253E-05  6.11204823E-05  7.45790900E-05  7.75636971E-05  9.51989334E-05  1.41367575E-04
    1.22254330E-04  1.16050461E-04  8.92118318E-05  8.92814434E-05  1.34336970E-04  1.45863954E-04  1.13975607E-04  1.17300546E-04  9.76773511E-05  8.92434578E-05  7.13581745E-05  6.72954038E-05  6.73989794E-05  6.32487317E-05  5.18073852E-05  4.93268755E-05  4.40444928E-05  3.84266285E-05  6.74301664E-05  1.51446269E-04
    2.25009961E-04  2.99365023E-04  2.79881570E-04  2.13190679E-04  2.34003655E-04  3.78138044E-04  4.81496748E-04  5.51188749E-04  3.79514329E-04  2.25943378E-04  1.86741800E-04  1.15094377E-04  6.11508455E-05  4.10274136E-05  3.10189133E-05  2.24107912E-05  2.36063524E-05  3.98892594E-05  8.17732557E-05  8.42452781E-05
    8.61204156E-05  1.11980112E-04  1.11910611E-04  7.10072172E-05  5.87504247E-05  5.93757345E-05  6.74450848E-05  8.89454420E-05  1.00414022E-04  1.27954110E-04  1.64544719E-04  1.22275932E-04  1.50590313E-04  1.62979760E-04  1.28610713E-04  7.58981978E-05  7.23848284E-05  7.70730548E-05  8.23495713E-05  7.34672072E-05
    5.14333929E-05  3.30194148E-05  4.50129707E-05  4.74987141E-05  6.86294870E-05  8.85769888E-05  9.74798647E-05  1.06435683E-04  1.75227617E-04  2.36808816E-04  4.32446371E-04  6.04568630E-04  4.50482482E-04  3.22028939E-04  2.69820216E-04  1.87527315E-04  1.35004245E-04  1.35775926E-04  1.72045139E-04  1.64254113E-04
    1.69291695E-04  2.78782987E-04  3.75533453E-04  2.74085627E-04  2.01630861E-04  2.05173016E-04  1.89877654E-04  1.44356441E-04  9.19883952E-05  7.24899379E-05  8.21579425E-05  1.15337184E-04  1.69666967E-04  2.68174095E-04  1.81056395E-04  8.31522584E-05  4.32776031E-05  3.32469728E-05  3.19781639E-05  4.56029928E-05
    5.20606135E-05  6.53694327E-05  7.42090159E-05  9.03418320E-05  1.21441582E-04  1.34887581E-04  1.45699410E-04  1.37911565E-04  1.12180350E-04  7.50157279E-05  9.67701110E-05  1.10343345E-04  1.35940757E-04  1.16697291E-04  1.07166660E-04  8.67870463E-05  8.81301780E-05  6.17845321E-05  8.00990649E-05  1.52080599E-04
    1.66392971E-04  2.34666911E-04  2.57472094E-04  3.45289644E-04  3.23686591E-04  2.62411251E-04  2.28107410E-04  3.18787212E-04  2.83780704E-04  2.34647273E-04  1.48602364E-04  8.02835616E-05  3.67785869E-05  4.43689117E-05  4.10237527E-05  4.06278762E-05  5.15550860E-05  4.57812587E-05  5.35796610E-05  5.09238443E-05
    5.52390793E-05  6.33924315E-05  6.82068562E-05  4.69526369E-05  3.77207969E-05  4.67954349E-05  8.70615895E-05  9.14178733E-05  1.12039743E-04  1.13441990E-04  1.44022241E-04  1.49585394E-04  2.01866403E-04  2.16067792E-04  1.52508355E-04  1.31599336E-04  2.05596614E-04  1.73794332E-04  1.49436300E-04  1.47268280E-04
    5.45573123E-05  3.50748133E-05  3.72754114E-05  3.13394181E-05  2.76102300E-05  3.81419486E-05  5.78250330E-05  9.47623062E-05  1.47835834E-04  1.97004139E-04  2.46855031E-04  2.85566973E-04  1.90964872E-04  1.70788818E-04  1.64433294E-04  1.05492668E-04  4.85041725E-05  4.84429577E-05  5.11887286E-05  5.99557905E-05
    6.72676516E-05  1.10819065E-04  2.22084718E-04  2.48856150E-04  1.83897460E-04  1.51701034E-04  1.34105082E-04  1.25712123E-04  9.88502206E-05  8.23185709E-05  9.56577240E-05  8.65128187E-05  9.42867326E-05  1.07970506E-04  1.10153575E-04  1.00086141E-04  9.58390777E-05  7.05347858E-05  3.48791142E-05  3.22575597E-05
    2.80596114E-05  3.14130171E-05  3.99990579E-05  4.03532646E-05  5.65431703E-05  5.63250237E-05  6.33329742E-05  7.71646863E-05  7.24528951E-05  8.55395149E-05  1.08455755E-04  1.16528481E-04  1.53364771E-04  1.89287290E-04  1.83604378E-04  1.49849022E-04  1.37266178E-04  1.14930692E-04  1.21106322E-04  2.42800840E-04
    2.35817697E-04  2.54568159E-04  2.61535671E-04  2.52824310E-04  2.10924107E-04  2.43644839E-04  1.90700166E-04  2.09998708E-04  1.99313811E-04  1.48610101E-04  1.14783905E-04  7.76494003E-05  5.67937227E-05  5.17263342E-05  4.02691395E-05  2.80754586E-05  4.11076879E-05  5.76226277E-05  6.57012148E-05  5.17885803E-05
    4.02535464E-05  3.78884249E-05  4.02242499E-05  2.54174070E-05  2.51522743E-05  3.82188942E-05  4.41121996E-05  5.67813732E-05  6.95969834E-05  9.27341049E-05  8.76123619E-05  7.50617797E-05  7.96672606E-05  9.02851556E-05  1.12959726E-04  1.20413360E-04  1.71134351E-04  2.40610130E-04  2.07906127E-04  1.66997075E-04
    8.98361160E-05  5.36824899E-05  4.88809341E-05  4.10375362E-05  3.54217440E-05  3.24727299E-05  4.78378108E-05  6.08378993E-05  1.00244567E-04  1.06123054E-04  1.66142285E-04  1.46964640E-04  1.10514579E-04  1.08483594E-04  8.85892397E-05  5.89647560E-05  4.99582715E-05  4.97738557E-05  4.57054194E-05  3.90578885E-05
    3.25831530E-05  4.17685514E-05  6.27681962E-05  9.00081086E-05  5.88236901E-05  6.17635813E-05  5.16562366E-05  4.13151834E-05  3.64402549E-05  5.50567987E-05  8.03785824E-05  1.18079042E-04  1.25495679E-04  1.52230295E-04  1.32411242E-04  1.29357645E-04  1.19259257E-04  8.52816484E-05  6.03119418E-05  6.11450870E-05
    5.29163999E-05  4.49603438E-05  5.15999939E-05  3.58380060E-05  2.96188189E-05  2.88493304E-05  3.29206062E-05  3.10687845E-05  4.15051813E-05  3.84180864E-05  6.46454807E-05  8.55139241E-05  1.20759517E-04  1.67223121E-04  1.86800860E-04  1.44545268E-04  1.25345494E-04  1.09311571E-04  1.48871475E-04  1.89092848E-04
    1.43478446E-04  1.84682116E-04  3.11611098E-04  5.05912360E-04  4.71701874E-04  4.61014619E-04  2.94832065E-04  2.11252462E-04  2.21828170E-04  2.11359996E-04  1.56392115E-04  1.20056095E-04  5.40618506E-05  3.92967856E-05  3.92235237E-05  3.21330761E-05  3.31588646E-05  3.46881916E-05  3.24252714E-05  2.25804190E-05
    2.17502984E-05  2.53651409E-05  2.15404846E-05  1.63243132E-05  1.53879705E-05  2.53236177E-05  3.78822514E-05  5.03448254E-05  7.56315614E-05  7.05803813E-05  9.08916620E-05  1.08491861E-04  1.28345242E-04  1.11441872E-04  8.40578464E-05  5.07820380E-05  7.03446023E-05  1.04049526E-04  1.50431812E-04  1.54050957E-04
    1.00271809E-04  6.37853655E-05  9.02249598E-05  8.47804792E-05  6.55097038E-05  5.71349733E-05  7.71610415E-05  8.48796687E-05  1.27550670E-04  1.83738647E-04  1.99902911E-04  2.40691102E-04  1.31408864E-04  8.46616092E-05  5.91717904E-05  4.88289234E-05  4.08010689E-05  5.46124634E-05  4.27282352E-05  3.72753025E-05
    2.94521913E-05  4.20968054E-05  7.97934232E-05  8.78603099E-05  7.73652868E-05  7.46401319E-05  6.20184445E-05  4.20067677E-05  3.45496319E-05  3.38236298E-05  4.29748950E-05  5.56765119E-05  8.60298833E-05  9.51906054E-05  1.32506801E-04  1.23905808E-04  8.95323120E-05  7.60524704E-05  5.81271396E-05  6.21078523E-05
    4.37605420E-05  3.56824054E-05  4.48537530E-05  5.75122550E-05  6.71570357E-05  6.38149978E-05  5.55969938E-05  5.46998507E-05  4.88536597E-05  6.13168992E-05  8.51110862E-05  1.17633838E-04  1.00784098E-04  7.83069314E-05  1.06333617E-04  9.81701916E-05  9.88255192E-05  9.47148901E-05  1.09562847E-04  1.63514105E-04
    1.54446554E-04  1.41918562E-04  1.47974399E-04  1.70125991E-04  2.35583541E-04  3.83238487E-04  6.59095146E-04  6.18536328E-04  4.00203609E-04  1.84146064E-04  1.19806796E-04  1.01105518E-04  8.00064990E-05  5.91949847E-05  3.40364182E-05  2.03339718E-05  2.40659241E-05  4.06042090E-05  3.75942461E-05  2.94066866E-05
    2.37011351E-05  2.04746881E-05  1.59404818E-05  1.37073091E-05  1.17969415E-05  1.75866721E-05  2.30541734E-05  2.99705983E-05  4.27618961E-05  7.93875978E-05  9.53471747E-05  8.50289950E-05  9.01956138E-05  8.81220494E-05  9.89831034E-05  8.70914277E-05  1.12320573E-04  1.09372976E-04  1.15535594E-04  1.44870903E-04
    9.36782822E-05  5.83249728E-05  7.55363595E-05  8.98601838E-05  9.16947893E-05  1.36134024E-04  2.01606231E-04  2.17033066E-04  2.97495233E-04  3.07269675E-04  4.07691860E-04  5.81647529E-04  4.76676021E-04  2.26229837E-04  1.22579191E-04  6.97737046E-05  3.91928576E-05  3.84343567E-05  3.45782962E-05  2.49242080E-05
    2.87503392E-05  3.92924405E-05  4.49969072E-05  5.78398894E-05  6.79994027E-05  1.14510785E-04  1.37583596E-04  1.13683349E-04  6.66324774E-05  4.91188991E-05  4.13830197E-05  5.29566590E-05  6.51026465E-05  9.53180548E-05  8.48780413E-05  9.18357218E-05  6.94243183E-05  7.21377616E-05  4.14700832E-05  3.83109514E-05
    3.26277291E-05  3.16319586E-05  3.96988767E-05  5.96806588E-05  8.69186823E-05  1.07199925E-04  1.21540019E-04  9.17755608E-05  9.33750216E-05  8.82146563E-05  1.10193304E-04  9.29750607E-05  1.13307946E-04  1.33938939E-04  1.55176573E-04  9.92539443E-05  8.32412147E-05  8.42616707E-05  1.23086676E-04  1.38817148E-04
    1.36753720E-04  1.52659191E-04  1.68576717E-04  1.88516654E-04  1.62308882E-04  2.62114712E-04  4.36523182E-04  5.28521637E-04  3.79316533E-04  3.28035916E-04  2.12960565E-04  1.48115923E-04  6.83653108E-05  5.12006454E-05  5.01701049E-05  5.27368171E-05  6.81105957E-05  7.93237067E-05  4.86043291E-05  3.50342501E-05
    3.45765985E-05  2.70361162E-05  2.08818524E-05  1.54621754E-05  1.19040745E-05  1.68617172E-05  2.81726856E-05  3.28216068E-05  5.29745214E-05  7.23852829E-05  9.57114018E-05  1.21654524E-04  1.87848006E-04  1.48496172E-04  1.09330394E-04  8.91580115E-05  1.08343650E-04  1.54975811E-04  2.01687292E-04  2.31677657E-04
    7.42113016E-05  5.98236599E-05  5.87073986E-05  6.68933303E-05  6.72064569E-05  6.15538429E-05  1.05631375E-04  1.58776680E-04  2.57095929E-04  3.51235134E-04  3.82630048E-04  4.58658040E-04  3.53787295E-04  2.66229798E-04  1.79234597E-04  9.00080124E-05  5.72721921E-05  4.85862377E-05  3.43359602E-05  2.48435228E-05
    3.01761818E-05  4.17398037E-05  5.77549005E-05  5.82293492E-05  5.56074846E-05  6.58855083E-05  9.66665227E-05  8.88645846E-05  5.83920950E-05  6.73661735E-05  7.63227422E-05  7.06051438E-05  7.76330986E-05  1.00730298E-04  1.06761296E-04  1.12399328E-04  6.82952415E-05  5.18850071E-05  3.48379193E-05  3.29434964E-05
    2.43303998E-05  1.96359082E-05  2.52658235E-05  3.89524219E-05  5.27296668E-05  8.44129286E-05  1.57476253E-04  1.53815375E-04  1.42211340E-04  1.45251011E-04  1.36294827E-04  1.45580900E-04  2.13002066E-04  2.38275275E-04  2.78508679E-04  2.01318427E-04  1.68785608E-04  1.70400991E-04  2.24016296E-04  2.80047155E-04
    2.37113393E-04  3.00061733E-04  3.10187105E-04  2.49014652E-04  2.14138383E-04  2.77026167E-04  4.13490776E-04  3.47330019E-04  3.26346102E-04  2.56621180E-04  2.23681468E-04  2.00456807E-04  1.62562019E-04  9.82007913E-05  8.57594094E-05  8.12247003E-05  1.08053750E-04  1.55940322E-04  1.54278383E-04  6.57258040E-05
    5.71720513E-05  4.91802615E-05  3.09300206E-05  2.53911106E-05  1.84181864E-05  1.90221559E-05  1.76010643E-05  1.80808440E-05  2.97992952E-05  5.31975596E-05  7.01217837E-05  9.85155421E-05  1.37460059E-04  1.50569879E-04  1.66989484E-04  1.36003418E-04  1.20688667E-04  1.23980770E-04  1.18872563E-04  9.26135882E-05
    5.23080476E-05  3.07424710E-05  2.60276851E-05  2.86379280E-05  3.49439453E-05  4.39044493E-05  9.93984127E-05  1.49441720E-04  2.09140164E-04  2.55867585E-04  3.88562197E-04  3.87847075E-04  3.53718550E-04  1.72054763E-04  1.22947662E-04  1.02461171E-04  7.94594861E-05  6.36532223E-05  4.74559470E-05  3.96841876E-05
    4.41237642E-05  4.62029556E-05  5.74978501E-05  7.07889821E-05  6.29090889E-05  7.93469699E-05  1.14340081E-04  1.36072278E-04  1.10467700E-04  1.09167166E-04  8.83585931E-05  1.01837320E-04  1.38625091E-04  1.59223454E-04  1.68078602E-04  2.24118215E-04  1.38967999E-04  8.85600571E-05  6.24340818E-05  4.26005287E-05
    2.38984173E-05  1.99088353E-05  2.08077751E-05  2.10809543E-05  2.86535549E-05  3.06888302E-05  5.04610110E-05  6.67340873E-05  8.61638258E-05  1.25400229E-04  1.60069903E-04  1.51621239E-04  1.60745490E-04  1.53330760E-04  1.98459979E-04  1.99002265E-04  1.97841565E-04  2.39683143E-04  2.70670320E-04  2.44612064E-04
    2.28656121E-04  3.34056454E-04  4.06124802E-04  4.04800226E-04  3.45972942E-04  3.47344925E-04  4.50601721E-04  4.07130939E-04  3.31534572E-04  2.94638956E-04  2.30013586E-04  1.64495704E-04  1.50293596E-04  1.28821701E-04  1.31197221E-04  1.07343076E-04  1.02395174E-04  1.24685766E-04  1.14040693E-04  7.86983215E-05
    5.78941223E-05  4.61060040E-05  2.89663222E-05  2.36832948E-05  2.69177935E-05  3.50960175E-05  4.06392977E-05  2.77397029E-05  1.94001838E-05  2.54325307E-05  3.62843437E-05  4.83480086E-05  7.10380383E-05  7.26674208E-05  1.02540885E-04  1.01002876E-04  1.01550368E-04  1.04392044E-04  1.15399442E-04  1.08565160E-04
    5.77138982E-05  5.25719200E-05  5.15749031E-05  3.67588989E-05  2.89419651E-05  2.73007303E-05  4.23209184E-05  6.95786010E-05  1.51049959E-04  3.10330436E-04  3.30587392E-04  3.30526483E-04  2.96554539E-04  2.23549420E-04  1.44243569E-04  1.44987002E-04  9.67787421E-05  7.85148652E-05  7.33222788E-05  5.26945274E-05
    5.00099113E-05  6.51093873E-05  7.29457350E-05  7.92424280E-05  8.42938852E-05  7.74684188E-05  8.64268289E-05  1.09263697E-04  1.24128592E-04  1.46898569E-04  2.01898548E-04  2.10080187E-04  2.46327574E-04  2.44698201E-04  2.28114102E-04  3.30850895E-04  2.23786317E-04  1.64893480E-04  1.20103751E-04  7.76759835E-05
    3.55760705E-05  2.25037144E-05  1.68295305E-05  2.04629699E-05  2.73059990E-05  3.40639808E-05  3.53382164E-05  3.90410031E-05  3.54229906E-05  5.16959221E-05  8.47330616E-05  1.00680481E-04  9.66955057E-05  9.61095861E-05  8.01979477E-05  6.70598414E-05  6.62436316E-05  8.91887723E-05  1.23789847E-04  1.67234333E-04
    2.51546574E-04  3.88350676E-04  3.52830108E-04  2.61989913E-04  2.28946812E-04  2.55758370E-04  3.77355344E-04  3.49835850E-04  2.65890909E-04  2.48388763E-04  2.71998518E-04  2.26070427E-04  2.18955090E-04  2.49578932E-04  2.15257262E-04  2.07874784E-04  2.24861843E-04  2.55239115E-04  2.13647340E-04  1.26100929E-04
    9.08102985E-05  5.84511973E-05  3.19638168E-05  3.39110974E-05  1.82842616E-05  1.53155235E-05  1.65849053E-05  1.62395804E-05  1.94140505E-05  2.40282856E-05  2.23396599E-05  1.59198685E-05  2.16437611E-05  2.45510922E-05  3.63061380E-05  5.71238654E-05  6.44449404E-05  5.02089159E-05  5.79533905E-05  6.89894562E-05
    7.29244516E-05  7.31447413E-05  4.91262059E-05  4.34812330E-05  5.45237522E-05  7.51074945E-05  1.03070819E-04  1.18357005E-04  1.01774270E-04  1.43646412E-04  2.18329626E-04  2.57781497E-04  2.11600770E-04  1.54609884E-04  1.04694771E-04  9.17598350E-05  7.98751789E-05  7.34602155E-05  6.75792321E-05  4.68787555E-05
    4.43760751E-05  4.96248286E-05  7.62306897E-05  9.66220712E-05  1.17367208E-04  7.79545128E-05  7.28479621E-05  8.46585679E-05  7.63138432E-05  9.21255947E-05  1.33408580E-04  1.72136386E-04  2.08401369E-04  3.16104386E-04  3.68965442E-04  6.17493176E-04  7.81596757E-04  6.69069276E-04  4.28064035E-04  3.37782075E-04
    1.25568112E-04  6.92223037E-05  4.45981691E-05  3.68612856E-05  3.81231216E-05  3.31858680E-05  4.28478948E-05  4.21618815E-05  3.62558099E-05  4.57284305E-05  4.79429894E-05  4.18895302E-05  6.01661411E-05  5.90183135E-05  5.99339820E-05  4.85062310E-05  5.50609503E-05  5.08491780E-05  5.38998922E-05  6.30689147E-05
    9.09949115E-05  2.01192648E-04  2.60710430E-04  2.72152537E-04  3.88145181E-04  5.73661298E-04  5.09442468E-04  2.84107689E-04  2.36694796E-04  3.13675609E-04  2.82987582E-04  2.02123624E-04  1.61250375E-04  1.81562046E-04  2.09380388E-04  2.52072075E-04  3.15811897E-04  4.28648435E-04  3.79314291E-04  2.15911593E-04
    1.38777454E-04  1.14787844E-04  5.11344896E-05  2.18861489E-05  1.78540886E-05  1.53054823E-05  2.46895007E-05  2.38764115E-05  1.65631974E-05  1.40171222E-05  1.37040959E-05  1.22613544E-05  1.72629498E-05  1.35698904E-05  1.62762087E-05  1.88257301E-05  2.80543563E-05  4.11212593E-05  7.21506217E-05  7.41652841E-05
    9.56972431E-05  7.01679816E-05  6.64044224E-05  5.30053779E-05  5.40000802E-05  5.65217274E-05  6.26541387E-05  1.09382658E-04  1.54017234E-04  2.24806533E-04  3.86250249E-04  3.06938139E-04  1.90949298E-04  1.33386622E-04  1.02571659E-04  9.64611490E-05  7.99157629E-05  4.96142422E-05  3.91005821E-05  2.80982871E-05
    2.86761016E-05  3.15068013E-05  5.65306651E-05  1.13069823E-04  1.57667758E-04  1.45487762E-04  1.36174326E-04  1.20643657E-04  7.84043929E-05  6.70332053E-05  8.64400200E-05  1.05460603E-04  1.58925817E-04  1.93707545E-04  1.46651802E-04  2.07613793E-04  2.34165031E-04  2.87522107E-04  3.57356473E-04  3.35953011E-04
    1.75016238E-04  9.91633812E-05  1.01892503E-04  7.43643233E-05  9.50974819E-05  1.20088759E-04  1.24079088E-04  7.82511269E-05  5.33222446E-05  5.36712121E-05  9.02925343E-05  7.19441064E-05  6.81157930E-05  6.26480422E-05  6.56786758E-05  7.72689885E-05  6.53462757E-05  5.69701495E-05  6.38824884E-05  6.35001556E-05
    6.26316276E-05  1.05702065E-04  1.25156407E-04  1.27065984E-04  1.94633117E-04  4.14473852E-04  7.09737672E-04  6.96237250E-04  4.31866525E-04  2.67606885E-04  2.31583930E-04  1.82458149E-04  1.94151826E-04  2.04268960E-04  2.14203842E-04  2.04509092E-04  2.38002201E-04  2.48511813E-04  2.70254551E-04  1.86906259E-04
    1.45411187E-04  1.16182607E-04  7.11510979E-05  4.38904771E-05  2.94069810E-05  2.20487913E-05  1.97761907E-05  2.52201977E-05  3.26850510E-05  3.22837360E-05  2.97664535E-05  1.71151241E-05  1.35784877E-05  1.17233844E-05  1.20198752E-05  1.50860712E-05  2.08233308E-05  2.52469401E-05  3.48824910E-05  3.78473055E-05
    1.83972352E-04  1.36926999E-04  7.18986653E-05  5.32559910E-05  5.57198746E-05  7.38332904E-05  9.76772689E-05  1.07657380E-04  1.57655072E-04  2.58946137E-04  3.85098042E-04  4.65412483E-04  3.37863660E-04  2.02268715E-04  9.40991602E-05  6.98655544E-05  6.09514589E-05  4.50615969E-05  5.23984981E-05  4.64836001E-05
    2.92510689E-05  2.89523551E-05  4.81685765E-05  7.20635620E-05  1.07678189E-04  1.29392254E-04  1.39211340E-04  1.67541954E-04  1.30008447E-04  1.14648422E-04  1.29580380E-04  1.60844320E-04  1.35315679E-04  1.20307724E-04  1.16244930E-04  1.67164420E-04  1.48521514E-04  1.05393397E-04  1.05628531E-04  1.14851168E-04
    7.07840170E-05  7.56865036E-05  8.44698402E-05  6.72330989E-05  7.66643376E-05  7.31225554E-05  8.44480362E-05  1.02805929E-04  8.69368408E-05  7.74072023E-05  1.02545445E-04  1.24093380E-04  1.12175572E-04  1.13912689E-04  1.16494669E-04  9.05009704E-05  8.62053281E-05  7.49347182E-05  8.01590643E-05  1.20046236E-04
    1.36172627E-04  1.45691897E-04  1.14400381E-04  1.15191384E-04  1.87126202E-04  2.91424584E-04  4.61032667E-04  5.12293588E-04  4.45084324E-04  2.95996328E-04  2.11270627E-04  1.35808052E-04  1.04225273E-04  1.41025805E-04  1.30364166E-04  1.28605478E-04  1.55698171E-04  1.71136268E-04  1.19343344E-04  1.14011706E-04
    8.72482056E-05  8.11514163E-05  5.12327041E-05  4.15363819E-05  2.76930824E-05  2.71767755E-05  2.84092546E-05  3.13563567E-05  2.84282904E-05  3.74489038E-05  4.28567199E-05  3.74594988E-05  4.57233079E-05  3.74670671E-05  2.83887175E-05  1.95800650E-05  2.45763607E-05  3.07082494E-05  4.65277362E-05  5.07221598E-05
    1.75861306E-04  1.66460131E-04  1.83213740E-04  1.26706804E-04  1.04274937E-04  8.46972888E-05  6.77169295E-05  1.21360496E-04  1.99388434E-04  2.60949959E-04  2.95874431E-04  3.14365539E-04  2.91468115E-04  2.57008620E-04  1.18199205E-04  7.40526410E-05  4.64776193E-05  3.81096425E-05  3.51463591E-05  4.58994126E-05
    4.38643149E-05  4.86147610E-05  7.11572836E-05  1.19632013E-04  1.89615413E-04  2.42784230E-04  2.11511195E-04  2.14309278E-04  1.66367318E-04  1.44818430E-04  1.77956262E-04  2.07173580E-04  1.84902128E-04  1.77661863E-04  1.43065595E-04  1.37083076E-04  1.12627455E-04  9.75388308E-05  7.80728021E-05  7.71847715E-05