# File generated by Flopy version 3.5.0 on 03/06/2024 at 10:48:00.
BEGIN griddata
  strt
    INTERNAL  FACTOR  1.0
        15.00000000      15.00000000      15.00000000      15.00000000      15.00000000      15.00000000      15.00000000      15.00000000      15.00000000      15.00000000      15.00000000      15.00000000      15.00000000      15.00000000      15.00000000      15.00000000      15.00000000      15.00000000      15.00000000      15.00000000
        15.00000000      15.00000000      15.00000000      15.00000000      15.00000000      15.00000000      15.00000000      15.00000000      15.00000000      15.00000000      15.00000000      15.00000000      15.00000000      15.00000000      15.00000000      15.00000000      15.00000000      15.00000000      15.00000000      15.00000000
        15.00000000      15.00000000      15.00000000      15.00000000      15.00000000      15.00000000      15.00000000      15.00000000      15.00000000      15.00000000      15.00000000      15.00000000      15.00000000      15.00000000      15.00000000      15.00000000      15.00000000      15.00000000      15.00000000      15.00000000
        15.00000000      15.00000000      15.00000000      15.00000000      15.00000000      15.00000000      15.00000000      15.00000000      15.00000000      15.00000000      15.00000000      15.00000000      15.00000000      15.00000000      15.00000000      15.00000000      15.00000000      15.00000000      15.00000000      15.00000000
        15.00000000      15.00000000      15.00000000      15.00000000      15.00000000      15.00000000      15.00000000      15.00000000      15.00000000      15.00000000      15.00000000      15.00000000      15.00000000      15.00000000      15.00000000      15.00000000      15.00000000      15.00000000      15.00000000      15.00000000
        15.37931460      15.36491150      15.35972942      15.35282337      15.34214170      15.33487265      15.32393481      15.30941299      15.28864832      15.25659623      15.22465370      15.20721813      15.19738075      15.18423938      15.16832776      15.15398266      15.13976553      15.12491178      15.11321961      15.10264168
        15.09304430      15.08672834      15.08239258      15.07741418      15.07546461      15.07410311      15.07036299      15.06461745      15.05986905      15.05688250      15.05545705      15.05330558      15.05148364      15.04960483      15.04786930      15.04678658      15.04624937      15.04796602      15.05181810      15.05447474
        15.05497884      15.05516326      15.05598664      15.05877724      15.06108396      15.06309971      15.06376484      15.06304603      15.06153530      15.06107152      15.06116416      15.06288102      15.06452628      15.06369512      15.06082858      15.05727396      15.05355939      15.05087346      15.04900000      15.04798955
        15.04712207      15.04569066      15.04538480      15.04611161      15.04773459      15.04969952      15.05147437      15.05271407      15.05422899      15.05499347      15.05548857      15.05604047      15.05696349      15.05720381      15.05623693      15.05503697      15.05580223      15.05704037      15.05831234      15.05986906
        15.06136289      15.06388492      15.06681488      15.06870515      15.06986199      15.07066447      15.07063057      15.06951502      15.06719986      15.06732937      15.06899509      15.06930740      15.06799492      15.06682608      15.06624365      15.06812254      15.07104858      15.07345969      15.07520838      15.07663524
        15.71795255      15.71144641      15.70176298      15.69041775      15.67338168      15.65675317      15.63106161      15.60138352      15.56888001      15.51793689      15.45575091      15.40976928      15.38105989      15.35488938      15.32707223      15.29990148      15.27280832      15.24535470      15.22333443      15.20394763
        15.18490484      15.17174681      15.16393550      15.15493058      15.14757160      15.14170095      15.13582215      15.12871882      15.12034535      15.11232959      15.10705611      15.10306037      15.09953342      15.09471669      15.08969617      15.08772365      15.08738079      15.08905293      15.09340280      15.09884210
        15.10313948      15.10559394      15.10563091      15.10702109      15.10925362      15.11210068      15.11310187      15.11202775      15.11020841      15.10978228      15.10934267      15.11030369      15.11222644      15.11159994      15.10692669      15.09906518      15.09068235      15.08418027      15.08023499      15.07818590
        15.07740257      15.07623961      15.07600007      15.07588165      15.07638769      15.07830151      15.08126745      15.08332987      15.08496352      15.08617141      15.08811715      15.08998203      15.09122862      15.09191157      15.09169168      15.09034645      15.08958673      15.08956988      15.09103717      15.09449898
        15.09761669      15.10051302      15.10392365      15.10797091      15.11132582      15.11288919      15.11291969      15.11338043      15.11258499      15.11223510      15.11262450      15.11343227      15.11444086      15.11499389      15.11380253      15.11493256      15.11962512      15.12539725      15.12937318      15.13064580
        16.03896726      16.04245128      16.03944123      16.02640754      16.00035665      15.97295233      15.93500316      15.88911337      15.84490124      15.78289617      15.70030933      15.62498303      15.57095780      15.52576452      15.48363402      15.44558979      15.40912094      15.36991755      15.33610379      15.30862678
        15.28309395      15.26438853      15.25238610      15.23935735      15.22755200      15.21776356      15.20724149      15.19549032      15.18365936      15.17327945      15.16468090      15.15564107      15.14789270      15.14227849      15.13727183      15.13441066      15.13191283      15.13230757      15.13720887      15.14398083
        15.14867023      15.15167610      15.15329446      15.15569323      15.15682695      15.15780701      15.15943998      15.16090436      15.16013916      15.15845453      15.15574138      15.15489065      15.15662313      15.15563841      15.14987370      15.14024220      15.13030886      15.12170650      15.11454088      15.11005196
        15.10944182      15.10870998      15.10735872      15.10510448      15.10427002      15.10649767      15.11059179      15.11384831      15.11678796      15.11957018      15.12221486      15.12344655      15.12342958      15.12416849      15.12503686      15.12403993      15.12218524      15.12136950      15.12276441      15.12681043
        15.13034696      15.13358504      15.13724912      15.14161466      15.14522227      15.14773361      15.14967410      15.15261034      15.15396616      15.15440449      15.15520341      15.15650209      15.15800009      15.15939314      15.15920026      15.16019865      15.16405050      15.16911833      15.17379224      15.17626417
        16.34330720      16.34829313      16.35526946      16.35227467      16.32667846      16.28954007      16.23894993      16.17740083      16.12231923      16.05299403      15.95626599      15.85442875      15.77181300      15.70339007      15.64218150      15.59059218      15.54542847      15.49826790      15.45484160      15.41941455
        15.38596131      15.36026859      15.34465955      15.32957412      15.31348478      15.29850249      15.28323799      15.26820999      15.25306769      15.23941291      15.22793754      15.21607668      15.20475227      15.19553657      15.18713016      15.18304332      15.18069374      15.17984732      15.18200755      15.18729413
        15.19284367      15.19772737      15.19999190      15.20156894      15.20257673      15.20374168      15.20540061      15.20656578      15.20646266      15.20634995      15.20455954      15.20161362      15.20051304      15.19888361      15.19481347      15.18493524      15.17160884      15.15922228      15.14963146      15.14331800
        15.14106782      15.13944306      15.13891673      15.13844289      15.13762103      15.13801619      15.14130417      15.14635518      15.15138179      15.15430528      15.15538204      15.15609381      15.15620343      15.15659910      15.15660480      15.15580836      15.15497210      15.15420137      15.15306956      15.15448348
        15.15783857      15.16262693      15.16702794      15.17121534      15.17572591      15.18099290      15.18569267      15.18983857      15.19227099      15.19393464      15.19568542      15.19646359      15.19692056      15.19874843      15.20090210      15.20316836      15.20606043      15.20947904      15.21371562      15.21599107
        16.65011178      16.64895445      16.65229076      16.65470029      16.64151367      16.61038247      16.55353588      16.46914684      16.39568416      16.32169396      16.22000356      16.09657514      15.98384627      15.89071197      15.80758755      15.73732737      15.67916105      15.62352100      15.57289379      15.53115649
        15.49064877      15.45643472      15.43697605      15.42251927      15.40595811      15.38779853      15.36786899      15.34869755      15.32889166      15.31020520      15.29502074      15.28091037      15.26678355      15.25404235      15.24162221      15.23521184      15.23271665      15.23083471      15.23017693      15.23270201
        15.23670497      15.24089268      15.24329778      15.24560200      15.24794801      15.24930769      15.25060569      15.25166474      15.25214849      15.25250000      15.25103233      15.24751435      15.24543164      15.24284818      15.23848903      15.22896523      15.21520366      15.20086265      15.18771275      15.17717412
        15.17263038      15.17157998      15.17235459      15.17281591      15.17223980      15.17271320      15.17579953      15.18017736      15.18444169      15.18812371      15.19064446      15.19167868      15.18951572      15.18762783      15.18759427      15.18770464      15.18617441      15.18352129      15.18098138      15.18191028
        15.18488755      15.18907270      15.19409706      15.20039203      15.20673575      15.21177897      15.21557705      15.22048943      15.22606347      15.23010474      15.23259464      15.23411969      15.23634784      15.23914732      15.24070165      15.24126532      15.24317816      15.24587220      15.24881377      15.24965801
        16.95566683      16.94608211      16.94437522      16.94637120      16.93631180      16.91172358      16.86412971      16.77378027      16.67544587      16.58397680      16.47649141      16.34460283      16.20762347      16.08775194      15.97882640      15.88577199      15.81154977      15.74413671      15.68373691      15.63640708
        15.59422123      15.55557544      15.53017295      15.51394389      15.49913948      15.48293119      15.46109557      15.43549149      15.40875760      15.38581665      15.36847345      15.35216921      15.33484947      15.31947136      15.30355355      15.29138644      15.28385780      15.27926298      15.27791479      15.27921129
        15.28126784      15.28421968      15.28750694      15.29112797      15.29391709      15.29386261      15.29384313      15.29450457      15.29502864      15.29552387      15.29550991      15.29397319      15.29275737      15.28937411      15.28345061      15.27267204      15.25742727      15.24093722      15.22497947      15.21164056
        15.20558070      15.20509210      15.20703511      15.20962230      15.21100890      15.21158044      15.21263144      15.21489994      15.21827604      15.22213400      15.22453506      15.22566832      15.22319494      15.21977347      15.21758657      15.21632961      15.21495441      15.21347137      15.21103675      15.21012550
        15.21137272      15.21520603      15.22096499      15.22735717      15.23354610      15.23939531      15.24490506      15.25059145      15.25654690      15.26181400      15.26683433      15.27008819      15.27143523      15.27206634      15.27329395      15.27496127      15.27724769      15.27922534      15.28213630      15.28413259
        17.27754939      17.25517541      17.23798003      17.23324658      17.22259855      17.19934773      17.15701067      17.07012985      16.95783586      16.84825713      16.72905870      16.58718738      16.43221527      16.28966242      16.15739139      16.03821159      15.94252203      15.85958754      15.78801908      15.73461289
        15.69230636      15.65299512      15.62439633      15.60670852      15.59215411      15.57682332      15.55651150      15.53134662      15.50005321      15.46757073      15.44268982      15.42408603      15.40633406      15.38825170      15.36666946      15.34849053      15.33838950      15.33241647      15.32895017      15.32799024
        15.32938967      15.33174854      15.33249554      15.33226549      15.33409262      15.33573790      15.33681601      15.33669443      15.33669385      15.33849806      15.34082807      15.34038250      15.33809962      15.33377987      15.32781640      15.31662470      15.29873341      15.27944301      15.26271871      15.24934439
        15.24203952      15.24029441      15.24201813      15.24616444      15.24889004      15.24925426      15.24897069      15.25052511      15.25362588      15.25690431      15.25855783      15.26032130      15.25896475      15.25427491      15.24861363      15.24458384      15.24276420      15.24201169      15.23985970      15.23819495
        15.23887435      15.24224160      15.24742610      15.25313992      15.25978005      15.26666130      15.27246864      15.27710903      15.28259917      15.28879312      15.29526999      15.29993509      15.30272119      15.30431115      15.30559958      15.30655393      15.30799187      15.30971248      15.31244326      15.31400413
        17.60336973      17.57854822      17.54354564      17.51996428      17.49819559      17.47287629      17.43466761      17.35575001      17.23733511      17.11279397      16.98257262      16.83103169      16.65831656      16.49323550      16.34007768      16.19619165      16.07691719      15.97459278      15.88632347      15.82356171
        15.78322015      15.74918112      15.72079990      15.70082517      15.68515933      15.67040929      15.65154206      15.62723324      15.59490165      15.55602541      15.52233720      15.49715318      15.47642254      15.45805792      15.43600028      15.41275176      15.39585138      15.38487779      15.37941502      15.37741886
        15.37729079      15.37783254      15.37754532      15.37641172      15.37742250      15.37815961      15.37903239      15.37964872      15.37976264      15.38026800      15.38145240      15.38183717      15.38165242      15.37879212      15.37250995      15.36092154      15.34218997      15.32002249      15.29863646      15.28129860
        15.27425953      15.27463359      15.27711492      15.28093014      15.28442093      15.28771172      15.28988255      15.29091396      15.29150430      15.29304442      15.29391405      15.29462823      15.29181997      15.28566017      15.27950376      15.27495959      15.27199406      15.27052554      15.26977996      15.26973279
        15.26976420      15.26984984      15.27240082      15.27727585      15.28376874      15.29007737      15.29585024      15.30143851      15.30806064      15.31426621      15.32013850      15.32548799      15.33034672      15.33329636      15.33385296      15.33341210      15.33431401      15.33621074      15.33848229      15.33977430
        17.91516758      17.88895203      17.85098073      17.81909199      17.78127349      17.73990179      17.69844195      17.63057766      17.51626640      17.37696389      17.23017870      17.07053720      16.88751464      16.70206230      16.52891480      16.36333842      16.22081360      16.09637805      15.98293810      15.90242665
        15.86590271      15.84243197      15.81886641      15.79702716      15.77869834      15.76336659      15.74547098      15.72229919      15.69098988      15.64931968      15.60800331      15.57363550      15.54582987      15.52469695      15.50370597      15.47925329      15.45731301      15.44054368      15.43169890      15.42805674
        15.42653561      15.42625702      15.42542375      15.42232322      15.42042843      15.41922947      15.41964125      15.42085396      15.42121097      15.42142867      15.42278568      15.42431062      15.42518223      15.42370986      15.41876305      15.40779398      15.38578066      15.35578270      15.32495006      15.30075784
        15.29986822      15.30642325      15.31225035      15.31820115      15.32353407      15.32764886      15.32973342      15.33066553      15.33125804      15.33155582      15.32948057      15.32812477      15.32672559      15.32254723      15.31560026      15.30780631      15.30257629      15.30027368      15.29872795      15.29686364
        15.29573106      15.29573716      15.29828135      15.30183782      15.30678922      15.31335616      15.32075238      15.32665102      15.33137043      15.33584721      15.34161545      15.34761743      15.35251949      15.35577387      15.35786522      15.35896039      15.35916962      15.35889816      15.35961672      15.36137087
        18.22718116      18.19945306      18.15288104      18.11393570      18.07056188      18.01677906      17.95961607      17.88637681      17.77631588      17.63753318      17.48189122      17.31185919      17.11802834      16.91787708      16.72974358      16.54475754      16.37670945      16.22619018      16.07957536      15.96928980
        15.94163622      15.93319586      15.91962438      15.90032181      15.87931563      15.85924781      15.83833094      15.81518872      15.78660032      15.74382341      15.69478858      15.65182660      15.61783902      15.59234813      15.56932924      15.54426295      15.52153730      15.50102255      15.48586483      15.47712168
        15.47371125      15.47419990      15.47405207      15.46977266      15.46572595      15.46362938      15.46332984      15.46380425      15.46382632      15.46437386      15.46566606      15.46661443      15.46658212      15.46554165      15.46202130      15.45289690      15.42971571      15.39088684      15.34229775      15.29628363
        15.31597403      15.33656409      15.34940504      15.35785018      15.36353674      15.36751681      15.37022450      15.37195051      15.37297351      15.37306704      15.37000228      15.36661402      15.36387668      15.35884318      15.35135519      15.34201575      15.33419260      15.32905074      15.32578503      15.32376948
        15.32346373      15.32324826      15.32436140      15.32645707      15.33034755      15.33585821      15.34175487      15.34662919      15.35137888      15.35622681      15.36129445      15.36637033      15.37164694      15.37679755      15.38010596      15.38060717      15.37950212      15.37852534      15.37840287      15.37918769
        18.53017552      18.50078293      18.45011069      18.40353124      18.35416033      18.29276352      18.22458625      18.14368196      18.02947529      17.88769192      17.72858500      17.55783629      17.35861994      17.13997079      16.93322748      16.73354644      16.54708834      16.37637047      16.19925759      16.05128136
        16.03385909      16.03649183      16.02770769      16.00732951      15.98252259      15.95830558      15.93293619      15.90466190      15.87478872      15.83577483      15.78759593      15.73763421      15.69300708      15.66016904      15.63531457      15.60965215      15.58373809      15.55855404      15.53971114      15.52866309
        15.52203662      15.52020421      15.52144394      15.52065641      15.51720721      15.51173823      15.50726051      15.50681150      15.50767287      15.50822729      15.50839368      15.50901676      15.50960649      15.50881667      15.50418253      15.49487622      15.47363118      15.43132680      15.35831043      15.25345586
        15.32847990      15.37102748      15.39125674      15.40155385      15.40714528      15.41124314      15.41447922      15.41548702      15.41539303      15.41572416      15.41388911      15.40939369      15.40387049      15.39631480      15.38795439      15.37750117      15.36664688      15.35798239      15.35263512      15.35004920
        15.34957650      15.34878598      15.34946638      15.35139304      15.35378338      15.35679077      15.36098898      15.36595118      15.37096876      15.37516517      15.37903652      15.38366938      15.38872986      15.39322329      15.39600642      15.39726037      15.39738045      15.39673073      15.39576954      15.39621737
        18.83305582      18.79219791      18.73332881      18.68501951      18.63632174      18.57070606      18.49218527      18.40414825      18.28682331      18.13873404      17.96973254      17.79493196      17.59941154      17.37194624      17.14412195      16.92653449      16.72823655      16.55533218      16.38836033      16.24619773
        16.19183036      16.16817682      16.14590558      16.11825822      16.08764448      16.05843802      16.02894642      15.99593626      15.96235395      15.92325929      15.87622175      15.82471885      15.77327269      15.73105708      15.69878457      15.66995228      15.64360557      15.61763985      15.59551678      15.58123925
        15.57185441      15.56849098      15.56974583      15.56990587      15.56713737      15.56204183      15.55622945      15.55320837      15.55187077      15.55220833      15.55320456      15.55344676      15.55171792      15.54867202      15.54343478      15.53598916      15.52011283      15.48836670      15.44044580      15.38890393
        15.40691603      15.42692634      15.43953740      15.44821129      15.45416703      15.45713413      15.45864035      15.45933093      15.46063323      15.46192296      15.45988626      15.45351841      15.44639364      15.43705304      15.42555479      15.41126562      15.39823810      15.38931584      15.38280346      15.37740021
        15.37487270      15.37386660      15.37417132      15.37433397      15.37403649      15.37542097      15.37909231      15.38335917      15.38715148      15.39107622      15.39557274      15.40022754      15.40390839      15.40729433      15.41073374      15.41365509      15.41460975      15.41376205      15.41237248      15.41266307
        19.13204463      19.08940053      19.01457148      18.94859383      18.89936881      18.84248434      18.76570983      18.66972676      18.54556471      18.39256659      18.21420870      18.02803099      17.82813961      17.59770113      17.35822138      17.12384500      16.91094670      16.73552087      16.58238462      16.44931791
        16.36352088      16.30798868      16.26566683      16.22742816      16.18976703      16.15508702      16.12234102      16.08674529      16.05010250      16.00922717      15.96071370      15.90800973      15.85385414      15.80568888      15.76552160      15.73037075      15.70141031      15.67542289      15.65151710      15.63465080
        15.62260415      15.61666357      15.61650465      15.61746117      15.61678486      15.61360931      15.60738784      15.60182430      15.59761727      15.59577730      15.59577152      15.59548798      15.59370606      15.59074263      15.58508066      15.57817118      15.56788981      15.54885787      15.52105234      15.49242324
        15.48552010      15.48790236      15.49224800      15.49725887      15.50235316      15.50591337      15.50843158      15.50829113      15.50652943      15.50541437      15.50391863      15.49849936      15.48986812      15.47766097      15.46468481      15.45003342      15.43459736      15.42190564      15.41217975      15.40474195
        15.40025097      15.39634648      15.39356831      15.39317235      15.39379820      15.39504327      15.39679137      15.39960649      15.40339867      15.40748782      15.41065210      15.41348287      15.41659896      15.42056795      15.42422807      15.42685014      15.42855246      15.42985871      15.42979709      15.42928949
        19.40167996      19.36267540      19.28962604      19.21395410      19.15547166      19.09763583      19.02890792      18.93799407      18.81231908      18.64812669      18.45234516      18.25139123      18.04794491      17.81691200      17.56827110      17.32009406      17.09170571      16.90587494      16.75384782      16.62167987
        16.51832796      16.44063999      16.38056074      16.33063381      16.28525474      16.24656837      16.21268741      16.17535529      16.13440084      16.09097984      16.04204303      15.98814696      15.92987192      15.87726420      15.83416806      15.79578920      15.76186828      15.73197964      15.70647516      15.68974102
        15.67598410      15.66527488      15.66149924      15.66271559      15.66383238      15.66186531      15.65582614      15.64991217      15.64482060      15.64032002      15.63788626      15.63699167      15.63649073      15.63487267      15.62918462      15.62190903      15.61470364      15.60439352      15.58946370      15.57144085
        15.55846788      15.55169052      15.54852624      15.54783977      15.55015463      15.55297445      15.55533359      15.55435474      15.55059437      15.54776048      15.54652340      15.54287383      15.53594620      15.52415214      15.50944456      15.49134799      15.47080586      15.45357521      15.44045954      15.42994817
        15.42260142      15.41696994      15.41342587      15.41293026      15.41288347      15.41289113      15.41344012      15.41522953      15.41740710      15.41968886      15.42238779      15.42649357      15.43100772      15.43503330      15.43837213      15.44139376      15.44353370      15.44402714      15.44253077      15.44109752
        19.65052584      19.61709205      19.54870946      19.46847628      19.40335894      19.34024224      19.27230758      19.18651232      19.06871937      18.90680976      18.69702748      18.47261556      18.25527938      18.02386454      17.77460395      17.51642072      17.26868396      17.06386051      16.90247282      16.76619979
        16.65224736      16.55961429      16.48638819      16.42790652      16.37554637      16.33000393      16.29248821      16.25513996      16.21391168      16.16882246      16.11761259      16.06344378      16.00650556      15.95281818      15.90574604      15.86233826      15.82439239      15.79127010      15.76015631      15.73828999
        15.72345134      15.71283929      15.70766931      15.70656748      15.70699982      15.70731142      15.70444110      15.69868176      15.69115420      15.68401828      15.68089803      15.67982719      15.67906316      15.67840998      15.67564013      15.67071632      15.66454653      15.65638675      15.64727128      15.63635477
        15.62461449      15.61306661      15.60323953      15.59723012      15.59694562      15.59801396      15.59913939      15.59892107      15.59630816      15.59255604      15.58904179      15.58445263      15.57867999      15.56853372      15.55312429      15.53190720      15.50636101      15.48514836      15.46941401      15.45635898
        15.44691298      15.44004661      15.43435654      15.43080920      15.42835275      15.42755895      15.42794681      15.42900819      15.43054752      15.43334241      15.43711283      15.44127138      15.44475096      15.44774045      15.45057270      15.45257225      15.45310170      15.45277809      15.45220427      15.45191287
        19.86688153      19.84597831      19.79149265      19.70998996      19.63619558      19.56767486      19.49986654      19.41609386      19.30423067      19.15154008      18.94200047      18.69667412      18.45568789      18.21107630      17.95951017      17.70226417      17.44290659      17.21649830      17.03741722      16.89095815
        16.76808847      16.66450125      16.58058555      16.51484170      16.45670265      16.40475004      16.36306133      16.32567903      16.28613751      16.24312478      16.19370353      16.13893815      16.07972297      16.02344575      15.97448867      15.92840737      15.88595793      15.84871069      15.81366593      15.78841074
        15.77239649      15.76028092      15.75270529      15.74926247      15.74844437      15.74802131      15.74544438      15.74156022      15.73706480      15.73099888      15.72667979      15.72448330      15.72432058      15.72549291      15.72437174      15.72002733      15.71440442      15.70795000      15.70115647      15.69180191
        15.68072018      15.66970123      15.65884134      15.64825177      15.64198644      15.64012905      15.64116848      15.64177354      15.63837591      15.63279390      15.62837894      15.62410195      15.61813306      15.60783119      15.59370650      15.57519706      15.54785141      15.51925093      15.49690493      15.48096366
        15.47029353      15.46139180      15.45260303      15.44728501      15.44485535      15.44388719      15.44326918      15.44368923      15.44567517      15.44833441      15.45028024      15.45228383      15.45507121      15.45803097      15.46007599      15.46073920      15.46090979      15.46131015      15.46129990      15.46051253
        20.06173089      20.04328767      20.00393018      19.93714936      19.86205877      19.78023699      19.70263713      19.61985881      19.51489456      19.37158096      19.16938181      18.91270224      18.64991347      18.38725896      18.12163401      17.86115978      17.60041055      17.36088557      17.16167627      16.99890642
        16.86526595      16.75246597      16.66019550      16.58896758      16.52797082      16.47291001      16.42809533      16.38950696      16.35025527      16.30920620      16.26357266      16.21128600      16.15024780      16.08925143      16.03816054      15.99219914      15.94866002      15.90833839      15.86856393      15.83793643