# File generated by Flopy version 3.5.0 on 03/06/2024 at 10:48:00.
BEGIN options
END options

BEGIN griddata
  icelltype
    CONSTANT  0
  k
    INTERNAL  FACTOR  1.0
    2.75760013E-06  9.68866301E-06  9.66750568E-06  8.60194744E-06  8.44264476E-06  6.78031941E-06  4.99771122E-06  5.41965953E-06  5.85727978E-06  6.40272307E-06  7.53786076E-06  9.15809323E-06  8.79417322E-06  6.03669947E-06  5.51540549E-06  5.37811441E-06  5.24047328E-06  5.71901864E-06  5.87341466E-06  5.63248162E-06
    4.68100302E-06  4.62892535E-06  5.00915040E-06  5.01184854E-06  4.95630113E-06  4.68734604E-06  5.22593225E-06  5.47859955E-06  5.19084670E-06  5.18050228E-06  4.64114698E-06  4.08961702E-06  3.63119839E-06  3.65606041E-06  4.04319919E-06  3.94781421E-06  4.53746930E-06  4.68574067E-06  4.15810067E-06  3.66853585E-06
    3.52524264E-06  4.46995658E-06  4.71363647E-06  5.39888068E-06  6.89286960E-06  7.80281455E-06  9.08952329E-06  9.31437430E-06  1.08710236E-05  9.18092660E-06  7.05138297E-06  7.81661703E-06  8.68559258E-06  1.11465335E-05  1.18974890E-05  1.17589215E-05  9.63616918E-06  6.16501591E-06  5.59204307E-06  4.84713331E-06
    4.34435474E-06  3.93024459E-06  3.50555982E-06  3.37363488E-06  2.89352987E-06  3.06576718E-06  3.24788819E-06  2.96364976E-06  2.85779513E-06  2.55678269E-06  2.55934379E-06  2.47686427E-06  2.54355226E-06  2.83266339E-06  2.55579044E-06  2.56829419E-06  2.63175945E-06  3.00309323E-06  2.90359128E-06  2.31106966E-06
    2.34784098E-06  1.88681046E-06  1.57784916E-06  1.58382779E-06  1.76671999E-06  1.93248551E-06  1.71478345E-06  2.29756792E-06  3.18813427E-06  3.76700633E-06  5.05179697E-06  6.24630958E-06  7.29797706E-06  5.79901896E-06  6.15855562E-06  8.71489481E-06  8.78752106E-06  9.34986625E-06  9.66506180E-06  1.02815339E-05
    7.47936443E-06  8.50219375E-06  9.02091873E-06  8.10949051E-06  8.70662737E-06  7.29617751E-06  5.22920491E-06  5.23948353E-06  5.54322715E-06  6.01378989E-06  6.65180151E-06  8.65867120E-06  9.51036598E-06  6.87459912E-06  5.98108272E-06  5.53977303E-06  5.22212743E-06  5.47027959E-06  5.76998714E-06  5.77479729E-06
    4.89412602E-06  4.74151940E-06  5.02220953E-06  5.10750258E-06  5.07326003E-06  4.66346955E-06  5.20220834E-06  5.59437169E-06  5.55630158E-06  5.63970433E-06  5.25245777E-06  4.78643100E-06  4.01255282E-06  3.84011317E-06  4.00879715E-06  3.89514499E-06  4.53231114E-06  4.99042009E-06  4.85090209E-06  4.00992978E-06
    3.53890270E-06  4.06829433E-06  4.19467428E-06  4.97436735E-06  6.32136099E-06  7.83470131E-06  9.45020535E-06  9.62879878E-06  1.18028607E-05  1.00986922E-05  7.67890839E-06  7.47119847E-06  7.75058020E-06  1.01582412E-05  1.13665616E-05  1.29235357E-05  1.10294728E-05  6.91559676E-06  5.82330622E-06  4.84371170E-06
    4.63927475E-06  4.27050387E-06  3.92786993E-06  3.77807681E-06  3.09578349E-06  3.16942869E-06  3.31244899E-06  3.16713995E-06  3.01388417E-06  2.72238492E-06  2.73641661E-06  2.53747679E-06  2.64994472E-06  2.96474614E-06  2.74000391E-06  2.66941778E-06  2.57257050E-06  3.08123963E-06  3.10094310E-06  2.53281062E-06
    2.48767245E-06  1.93011074E-06  1.53115360E-06  1.35168343E-06  1.56689060E-06  1.84564651E-06  1.62096546E-06  2.02496269E-06  2.61036675E-06  3.11874572E-06  3.88500018E-06  5.01384282E-06  6.76548028E-06  5.56035533E-06  5.78925707E-06  8.01455325E-06  8.94839339E-06  9.40545779E-06  8.99528355E-06  1.02564424E-05
    6.56045980E-06  7.60084753E-06  8.24814001E-06  7.34142480E-06  8.39723479E-06  7.56855610E-06  5.57789716E-06  5.17530544E-06  5.38395910E-06  5.83548397E-06  5.89116036E-06  7.67564004E-06  9.24160113E-06  7.41825860E-06  6.41023349E-06  5.77389249E-06  5.36347000E-06  5.26923559E-06  5.57940025E-06  5.65593994E-06
    4.90468136E-06  4.73652206E-06  4.93810794E-06  5.20157605E-06  5.25119268E-06  4.72721012E-06  5.14664453E-06  5.53221536E-06  5.72608049E-06  5.86477027E-06  5.69946565E-06  5.53542839E-06  4.54791724E-06  4.19873002E-06  4.11494309E-06  3.86353999E-06  4.27627443E-06  4.84781165E-06  5.34708512E-06  4.45731149E-06
    3.78206311E-06  3.97033780E-06  3.84534033E-06  4.46692386E-06  5.45766231E-06  7.31437688E-06  9.32285947E-06  9.94361233E-06  1.29664611E-05  1.15503086E-05  8.94177907E-06  7.56389259E-06  7.05788020E-06  8.70724619E-06  9.90741438E-06  1.32873081E-05  1.27707848E-05  8.48697032E-06  6.56124213E-06  4.97963653E-06
    4.70501526E-06  4.29516715E-06  4.23000682E-06  4.21563090E-06  3.44673992E-06  3.42557617E-06  3.45035039E-06  3.41360525E-06  3.12915025E-06  2.82323549E-06  2.87578828E-06  2.58863324E-06  2.73009856E-06  3.12436958E-06  3.05811239E-06  2.86269699E-06  2.51396454E-06  2.95132412E-06  3.03052043E-06  2.66266034E-06
    2.65830221E-06  2.12877756E-06  1.63738634E-06  1.23274481E-06  1.36062040E-06  1.65518325E-06  1.51520406E-06  1.82492387E-06  2.25833243E-06  2.78252956E-06  3.15716478E-06  4.01349105E-06  5.89849547E-06  5.11663777E-06  5.22234791E-06  6.92643323E-06  8.92460102E-06  9.93081023E-06  9.13773493E-06  1.06833539E-05
    6.02407490E-06  7.12061827E-06  7.85123509E-06  6.84429362E-06  7.90269429E-06  7.54637541E-06  5.91706721E-06  5.11714536E-06  5.30024044E-06  5.91940593E-06  5.55337620E-06  6.92275969E-06  8.60326153E-06  7.63338280E-06  6.66653446E-06  5.98942638E-06  5.69043918E-06  5.26747349E-06  5.50272636E-06  5.60674229E-06
    4.88732987E-06  4.66733220E-06  4.72990674E-06  5.17519551E-06  5.39369338E-06  4.88429281E-06  5.19682965E-06  5.50861813E-06  5.84693242E-06  5.93595169E-06  5.88471232E-06  6.03477065E-06  5.09533093E-06  4.68955305E-06  4.40450817E-06  4.02085125E-06  4.09908813E-06  4.47866281E-06  5.34972206E-06  4.70043965E-06
    4.06323602E-06  4.07105475E-06  3.77272811E-06  4.17928996E-06  4.76155008E-06  6.54206487E-06  8.52092495E-06  9.64683123E-06  1.34128212E-05  1.30460877E-05  1.09990132E-05  8.46865990E-06  7.13453323E-06  7.65102390E-06  8.09648259E-06  1.19957847E-05  1.34502421E-05  1.05722262E-05  8.03028027E-06  5.67545001E-06
    4.97703856E-06  4.17989339E-06  4.26743087E-06  4.41681898E-06  3.77112792E-06  3.74588786E-06  3.69304354E-06  3.82517829E-06  3.35006642E-06  2.93569250E-06  2.98201852E-06  2.60097417E-06  2.69750967E-06  3.14015696E-06  3.45682667E-06  3.25757950E-06  2.62408875E-06  2.85939060E-06  2.80252468E-06  2.57181290E-06
    2.61205685E-06  2.32900742E-06  1.87686805E-06  1.25185803E-06  1.25766275E-06  1.47764983E-06  1.40223739E-06  1.61410594E-06  1.94020250E-06  2.52918528E-06  2.69912330E-06  3.34950758E-06  5.14945692E-06  4.79551738E-06  4.71641460E-06  5.62353413E-06  8.07312222E-06  9.92310672E-06  9.56414246E-06  1.17822685E-05
    5.53110763E-06  6.72128887E-06  7.70691320E-06  6.80571078E-06  7.73006594E-06  7.64614743E-06  6.39382802E-06  5.08553139E-06  5.16811308E-06  6.00679912E-06  5.54537729E-06  6.63090339E-06  8.25013153E-06  7.96008425E-06  6.93136591E-06  6.20422542E-06  6.10336018E-06  5.49470459E-06  5.65421222E-06  5.81471112E-06
    5.09920949E-06  4.75641989E-06  4.57692659E-06  5.05977162E-06  5.39336509E-06  5.03343801E-06  5.27610922E-06  5.56225493E-06  6.06380491E-06  6.05451852E-06  6.00205300E-06  6.21595232E-06  5.45498451E-06  5.12187756E-06  4.74451423E-06  4.36088600E-06  4.15972209E-06  4.24560792E-06  5.12224103E-06  4.65360804E-06
    4.18371554E-06  4.11796410E-06  3.82760049E-06  4.09267323E-06  4.39507427E-06  6.01355956E-06  7.66057228E-06  8.94437308E-06  1.26408322E-05  1.34744600E-05  1.30141842E-05  9.99002605E-06  8.19954011E-06  7.60682005E-06  6.98183626E-06  1.00633327E-05  1.23872666E-05  1.19810682E-05  9.73031313E-06  7.01404953E-06
    5.81567757E-06  4.28880577E-06  4.26354242E-06  4.38575837E-06  3.93227052E-06  3.93452577E-06  3.88308539E-06  4.33291521E-06  3.76311240E-06  3.20685314E-06  3.18110173E-06  2.67634973E-06  2.61188443E-06  2.91313856E-06  3.65040965E-06  3.73495528E-06  2.94687807E-06  2.99620653E-06  2.70459427E-06  2.43195173E-06
    2.35009801E-06  2.33399254E-06  2.11359811E-06  1.36039278E-06  1.26355247E-06  1.39571260E-06  1.36076715E-06  1.45755589E-06  1.65923145E-06  2.24211814E-06  2.30338402E-06  2.80989728E-06  4.46456322E-06  4.71479150E-06  4.59559228E-06  4.71274879E-06  6.83251074E-06  8.87072732E-06  9.30580549E-06  1.25453200E-05
    5.06766140E-06  6.16031530E-06  7.37063308E-06  6.93991037E-06  7.84561857E-06  8.14130328E-06  7.39482859E-06  5.35342657E-06  5.10332000E-06  5.91296394E-06  5.55254680E-06  6.52048263E-06  8.16229790E-06  8.69371865E-06  7.55757305E-06  6.64557787E-06  6.60181458E-06  5.87197874E-06  6.00208054E-06  6.24043623E-06
    5.60812376E-06  5.15453094E-06  4.67791791E-06  5.06389705E-06  5.35178297E-06  5.13978490E-06  5.26249148E-06  5.53404317E-06  6.28863852E-06  6.26615871E-06  6.24183061E-06  6.35187645E-06  5.66576085E-06  5.35231319E-06  4.92591662E-06  4.69681588E-06  4.36479433E-06  4.24395474E-06  5.00823302E-06  4.58458732E-06
    4.19819052E-06  4.01639602E-06  3.83520371E-06  4.00863923E-06  4.17652435E-06  5.75606882E-06  7.17336378E-06  8.50978880E-06  1.15346591E-05  1.27974053E-05  1.37510073E-05  1.11244995E-05  9.83694942E-06  8.54476025E-06  6.93961292E-06  8.89392081E-06  1.08507881E-05  1.21602024E-05  1.06871636E-05  8.51476590E-06
    7.17297585E-06  4.78271976E-06  4.46742608E-06  4.38660663E-06  4.03969191E-06  3.96189410E-06  3.89275285E-06  4.64645728E-06  4.21467121E-06  3.66893181E-06  3.56584471E-06  2.95601746E-06  2.65151488E-06  2.63145262E-06  3.47998072E-06  3.94758690E-06  3.32937341E-06  3.31943925E-06  2.85478017E-06  2.46252964E-06
    2.12479024E-06  2.17989945E-06  2.20545964E-06  1.47834876E-06  1.31493976E-06  1.37858415E-06  1.41457101E-06  1.41904231E-06  1.50280710E-06  2.01088898E-06  1.96411863E-06  2.28658743E-06  3.60611802E-06  4.56332048E-06  4.81263949E-06  4.42398129E-06  6.04545849E-06  7.58025306E-06  8.26495045E-06  1.17646466E-05
    4.85868674E-06  5.63981481E-06  6.76571437E-06  6.87512602E-06  7.76407681E-06  8.68834643E-06  9.06999018E-06  6.23597329E-06  5.39370134E-06  5.86425486E-06  5.47387376E-06  6.22800056E-06  7.84988999E-06  9.49764280E-06  8.59255446E-06  7.47664153E-06  7.36683763E-06  6.41858272E-06  6.45846233E-06  6.71744078E-06
    6.25677353E-06  5.76311709E-06  5.04654218E-06  5.31434457E-06  5.46642307E-06  5.32963179E-06  5.23581146E-06  5.36216949E-06  6.26702275E-06  6.39211821E-06  6.55218897E-06  6.61445493E-06  5.94201663E-06  5.50696738E-06  4.93856728E-06  4.83029279E-06  4.48757941E-06  4.33193800E-06  5.01356426E-06  4.67526935E-06
    4.31512143E-06  3.93173199E-06  3.82081391E-06  3.85580185E-06  3.90798472E-06  5.43683238E-06  6.84056546E-06  8.49440939E-06  1.09912285E-05  1.22316462E-05  1.34880713E-05  1.11625033E-05  1.09816780E-05  9.76126644E-06  7.70220278E-06  8.78269585E-06  1.01119278E-05  1.20953941E-05  1.08602756E-05  9.56712041E-06
    8.53897005E-06  5.52897618E-06  4.85586901E-06  4.53415919E-06  4.27946965E-06  4.00580839E-06  3.84399536E-06  4.65645458E-06  4.43522941E-06  4.11242248E-06  4.02636665E-06  3.48899335E-06  2.95040490E-06  2.53255106E-06  3.19769591E-06  3.79410983E-06  3.52443923E-06  3.57464227E-06  3.13942985E-06  2.70798169E-06
    2.08233439E-06  2.06568918E-06  2.19812140E-06  1.57616418E-06  1.35640421E-06  1.34995700E-06  1.49488410E-06  1.46980509E-06  1.48829391E-06  1.94386474E-06  1.79687353E-06  1.89698976E-06  2.69494149E-06  3.98100942E-06  4.89768481E-06  4.51435522E-06  5.93319759E-06  6.91704975E-06  7.35485462E-06  9.95245610E-06
    4.99897252E-06  5.44997111E-06  6.28815632E-06  6.69922176E-06  7.27548337E-06  8.61251455E-06  1.07421141E-05  7.79854404E-06  6.26805841E-06  6.16563250E-06  5.54138134E-06  5.80779624E-06  7.06579829E-06  9.58535111E-06  9.50466578E-06  8.50689453E-06  8.39174616E-06  7.20712486E-06  7.01595710E-06  7.11362572E-06
    6.83252094E-06  6.29202146E-06  5.46420119E-06  5.66338624E-06  5.73350078E-06  5.70211637E-06  5.36752639E-06  5.23092654E-06  5.98607507E-06  6.23357264E-06  6.66704103E-06  6.84885852E-06  6.34530899E-06  5.76620712E-06  4.97184610E-06  4.81845430E-06  4.42872096E-06  4.32187334E-06  4.92883619E-06  4.81010901E-06
    4.57324249E-06  4.01055394E-06  3.93720849E-06  3.79011303E-06  3.64781070E-06  4.89977026E-06  6.23228325E-06  8.35255361E-06  1.07917533E-05  1.24683733E-05  1.35736704E-05  1.08301797E-05  1.11889481E-05  1.03491784E-05  8.58291574E-06  9.13384237E-06  1.01985851E-05  1.27118311E-05  1.11701104E-05  1.03634825E-05
    9.60134361E-06  6.30833905E-06  5.20146037E-06  4.65242729E-06  4.61518007E-06  4.17008583E-06  3.90789393E-06  4.62646727E-06  4.46989292E-06  4.32794530E-06  4.25629936E-06  4.09423671E-06  3.50413245E-06  2.69126172E-06  3.09142811E-06  3.58880091E-06  3.54427566E-06  3.58010269E-06  3.32262863E-06  3.03067018E-06
    2.18113267E-06  2.07128679E-06  2.21839756E-06  1.71279900E-06  1.41345502E-06  1.30032964E-06  1.51376117E-06  1.50666990E-06  1.53571098E-06  2.01239939E-06  1.85134171E-06  1.76273795E-06  2.05980860E-06  3.15920497E-06  4.43545551E-06  4.49237834E-06  6.07938604E-06  6.90578375E-06  7.17331967E-06  8.49772257E-06
    5.29127203E-06  5.57443521E-06  6.20816228E-06  6.84688693E-06  6.84041664E-06  7.94347046E-06  1.12669446E-05  9.48660218E-06  7.75043768E-06  6.93939216E-06  6.01370292E-06  5.60421708E-06  6.16079398E-06  8.75685560E-06  9.59003236E-06  9.23370755E-06  9.29982196E-06  8.14035346E-06  7.72252783E-06  7.41249565E-06
    7.27062347E-06  6.60455614E-06  5.69237695E-06  5.79199839E-06  5.88086466E-06  6.13923492E-06  5.67475503E-06  5.30391170E-06  5.73259363E-06  5.89233569E-06  6.42901223E-06  6.75706104E-06  6.66189090E-06  6.09909854E-06  5.12886772E-06  4.84729651E-06  4.31951713E-06  4.21155978E-06  4.66367806E-06  4.76966261E-06
    4.76278611E-06  4.17402698E-06  4.22627141E-06  3.95063634E-06  3.59288217E-06  4.40920878E-06  5.41463727E-06  7.57553795E-06  9.99952951E-06  1.28475414E-05  1.44345464E-05  1.11340562E-05  1.12711008E-05  1.03754970E-05  9.09297800E-06  9.16597540E-06  1.03158542E-05  1.37208280E-05  1.20669065E-05  1.15264910E-05
    1.07482971E-05  7.26076098E-06  5.45937066E-06  4.55281727E-06  4.76355764E-06  4.30619324E-06  4.05262014E-06  4.74923841E-06  4.62763828E-06  4.48125302E-06  4.18791551E-06  4.43287636E-06  4.08155654E-06  3.02915436E-06  3.20407961E-06  3.57031039E-06  3.64463145E-06  3.49295405E-06  3.33711441E-06  3.24739790E-06
    2.30142153E-06  2.12371305E-06  2.26470029E-06  1.93460908E-06  1.55296414E-06  1.29954923E-06  1.49342955E-06  1.47227210E-06  1.53115284E-06  2.04879932E-06  2.04642536E-06  1.88435994E-06  1.79612099E-06  2.55289158E-06  3.68587184E-06  4.10586701E-06  5.86967698E-06  6.95444613E-06  7.52888525E-06  7.83898458E-06
    5.38950753E-06  5.66498356E-06  6.34677427E-06  7.53819909E-06  6.99328285E-06  7.47563548E-06  1.07359684E-05  1.04809575E-05  9.41149791E-06  8.07060879E-06  7.03526912E-06  5.88788588E-06  5.59503529E-06  7.70448283E-06  8.93950652E-06  9.37119393E-06  9.68322133E-06  8.93496360E-06  8.55002810E-06  7.72962838E-06
    7.68444960E-06  6.87340007E-06  5.80213834E-06  5.63753104E-06  5.67978142E-06  6.31843103E-06  5.98340329E-06  5.57355063E-06  5.70350480E-06  5.63551648E-06  6.04093724E-06  6.34236736E-06  6.62989152E-06  6.26877427E-06  5.32396854E-06  4.95930887E-06  4.28347571E-06  4.13277002E-06  4.38223113E-06  4.57356918E-06
    4.70447486E-06  4.20213097E-06  4.50736107E-06  4.27559246E-06  3.82300175E-06  4.23986123E-06  4.85108565E-06  6.53525835E-06  8.37618814E-06  1.20819594E-05  1.49547345E-05  1.20861477E-05  1.19334883E-05  1.06587856E-05  9.59491679E-06  8.85001819E-06  9.89250667E-06  1.40346866E-05  1.29819543E-05  1.30022682E-05
    1.23055292E-05  8.86756121E-06  5.97998643E-06  4.38675905E-06  4.60392939E-06  4.17811398E-06  4.05330006E-06  4.84196870E-06  5.01460252E-06  4.89072332E-06  4.14582469E-06  4.48963075E-06  4.40171626E-06  3.36595711E-06  3.37586670E-06  3.67493345E-06  3.95812136E-06  3.55307035E-06  3.36366282E-06  3.37623152E-06
    2.39743540E-06  2.13759139E-06  2.22996829E-06  2.16909308E-06  1.78396657E-06  1.39976576E-06  1.53547497E-06  1.44006038E-06  1.46886778E-06  1.91826555E-06  2.17669250E-06  2.14211370E-06  1.79931960E-06  2.30171137E-06  3.13306865E-06  3.62899376E-06  5.23036499E-06  6.53693183E-06  7.75651881E-06  7.51358248E-06
    5.27167449E-06  5.42953395E-06  6.21908445E-06  8.37911213E-06  7.81984678E-06  7.78185241E-06  1.03357224E-05  1.09407439E-05  1.07675501E-05  9.19882028E-06  8.49456085E-06  6.72297600E-06  5.57289857E-06  7.05013195E-06  8.27201544E-06  9.28793013E-06  9.67327393E-06  9.43219520E-06  9.26884793E-06  8.12941676E-06
    8.21177329E-06  7.33492406E-06  6.10184988E-06  5.52005297E-06  5.32343348E-06  6.08528409E-06  6.03763733E-06  5.88092905E-06  5.87846053E-06  5.59885604E-06  5.77057455E-06  5.90849954E-06  6.33776635E-06  6.14900385E-06  5.39445981E-06  5.02514279E-06  4.29149642E-06  4.12594499E-06  4.22954876E-06  4.45039623E-06
    4.54398601E-06  4.05732641E-06  4.53198924E-06  4.50740512E-06  4.21632827E-06  4.39210091E-06  4.77153040E-06  5.93108411E-06  6.81972590E-06  1.01616352E-05  1.37872519E-05  1.26457883E-05  1.27749572E-05  1.14853703E-05  1.07273080E-05  8.84948214E-06  9.34517289E-06  1.33578906E-05  1.31472090E-05  1.38788184E-05
    1.36240931E-05  1.12721384E-05  7.19297571E-06  4.51467463E-06  4.42819554E-06  3.86795588E-06  3.78525329E-06  4.55937970E-06  5.31198330E-06  5.58215739E-06  4.39927488E-06  4.60606959E-06  4.53891413E-06  3.61540831E-06  3.44524655E-06  3.68485528E-06  4.32839172E-06  3.78828992E-06  3.54939218E-06  3.59031084E-06
    2.56975471E-06  2.15879725E-06  2.10294553E-06  2.27142456E-06  2.00155496E-06  1.57477447E-06  1.68550927E-06  1.50986468E-06  1.46144259E-06  1.71751629E-06  2.11361596E-06  2.32021096E-06  1.90256436E-06  2.27951090E-06  2.88810301E-06  3.37708457E-06  4.62622854E-06  5.85346297E-06  7.48904847E-06  6.99026710E-06
    5.30024247E-06  5.09103577E-06  5.68404932E-06  8.52966065E-06  8.76303752E-06  8.79791130E-06  1.06908702E-05  1.17411863E-05  1.21337662E-05  1.02758149E-05  1.01240224E-05  7.93935822E-06  6.04396180E-06  6.86883502E-06  7.96515083E-06  9.50102360E-06  9.85166830E-06  9.97753812E-06  9.82620669E-06  8.50535225E-06
    8.72035283E-06  7.96211964E-06  6.79319462E-06  5.75467286E-06  5.19756547E-06  5.75686449E-06  5.82739604E-06  6.01280225E-06  6.07424080E-06  5.75056420E-06  5.69522232E-06  5.64160045E-06  6.07281381E-06  5.93430290E-06  5.34230096E-06  4.94263591E-06  4.23621899E-06  4.08813343E-06  4.14386922E-06  4.49924071E-06
    4.53028926E-06  3.96127129E-06  4.35933962E-06  4.46472432E-06  4.49679842E-06  4.61315275E-06  5.04042066E-06  5.97396050E-06  6.01832796E-06  8.37557427E-06  1.14903057E-05  1.19958535E-05  1.26900529E-05  1.21380903E-05  1.24254221E-05  9.55109401E-06  9.35742756E-06  1.26307627E-05  1.28839800E-05  1.37345467E-05
    1.36244784E-05  1.35008770E-05  9.05672310E-06  5.17293639E-06  4.57191077E-06  3.71552736E-06  3.46812074E-06  3.94653314E-06  5.09323072E-06  6.08657177E-06  4.87351299E-06  4.97678705E-06  4.77730026E-06  3.91120187E-06  3.47760176E-06  3.54708115E-06  4.47596879E-06  4.00960114E-06  3.82658069E-06  3.93252949E-06
    2.94802114E-06  2.32726926E-06  2.02803425E-06  2.25130712E-06  2.08464238E-06  1.72000724E-06  1.86360204E-06  1.69255835E-06  1.59711227E-06  1.62506749E-06  1.98935856E-06  2.32739795E-06  1.96432277E-06  2.29000615E-06  2.77772806E-06  3.35553032E-06  4.32235760E-06  5.39349043E-06  7.10376515E-06  6.35400115E-06
    5.72002986E-06  5.06207149E-06  5.18811985E-06  7.86609095E-06  9.02474097E-06  9.83137522E-06  1.13963227E-05  1.31594711E-05  1.41240933E-05  1.18346334E-05  1.21133266E-05  9.49286621E-06  6.90635610E-06  6.94483757E-06  7.84482100E-06  9.96974739E-06  1.05188724E-05  1.11164240E-05  1.07236903E-05  9.00158913E-06
    9.01908472E-06  8.41317835E-06  7.69189196E-06  6.36963160E-06  5.48149324E-06  5.71648962E-06  5.66453798E-06  5.99090993E-06  6.14030757E-06  5.96098247E-06  5.73949468E-06  5.52181911E-06  5.93791147E-06  5.82979306E-06  5.33618453E-06  4.82493657E-06  4.12036660E-06  3.92805212E-06  3.95899595E-06  4.55363607E-06
    4.68410502E-06  4.08267405E-06  4.28318797E-06  4.31646526E-06  4.54479869E-06  4.61986746E-06  5.27592025E-06  6.37305153E-06  5.93287283E-06  7.43093602E-06  9.57039414E-06  1.07853422E-05  1.15063432E-05  1.17609438E-05  1.36436599E-05  1.05734978E-05  9.95676035E-06  1.24927238E-05  1.31620130E-05  1.35280960E-05
    1.26193654E-05  1.42374652E-05  1.06750436E-05  6.21863618E-06  5.08844001E-06  3.92593552E-06  3.40538121E-06  3.41326163E-06  4.49524272E-06  5.92147893E-06  5.18344329E-06  5.38892049E-06  5.15969457E-06  4.41091251E-06  3.65134960E-06  3.46040119E-06  4.41132827E-06  4.07409412E-06  3.99917181E-06  4.19403775E-06
    3.51291849E-06  2.73855323E-06  2.14099860E-06  2.29882846E-06  2.09955639E-06  1.77784691E-06  1.92351712E-06  1.86977635E-06  1.84901333E-06  1.69537767E-06  1.98591281E-06  2.31021771E-06  1.99567907E-06  2.24355347E-06  2.61845582E-06  3.35041315E-06  4.17382440E-06  5.23934318E-06  7.01701913E-06  6.05009097E-06
    6.35911743E-06  5.46013652E-06  5.10908238E-06  7.15057552E-06  8.64874852E-06  1.02357022E-05  1.16104885E-05  1.44258573E-05  1.64406011E-05  1.42042634E-05  1.50429841E-05  1.18426108E-05  8.37538787E-06  7.24729171E-06  7.67604060E-06  1.01036752E-05  1.12249074E-05  1.28570362E-05  1.24398473E-05  1.00928635E-05
    9.36740322E-06  8.56056818E-06  8.33199802E-06  7.04148340E-06  6.04360689E-06  6.01385721E-06  5.76682228E-06  6.03889808E-06  6.16477391E-06  6.17303277E-06  5.81522101E-06  5.45847527E-06  5.84444929E-06  5.82276239E-06  5.45434866E-06  4.83022996E-06  4.07890985E-06  3.73603804E-06  3.65421755E-06  4.36917341E-06
    4.74472932E-06  4.34927414E-06  4.43057968E-06  4.32914236E-06  4.56090882E-06  4.46407122E-06  5.20291510E-06  6.58640622E-06  6.16501266E-06  7.11281891E-06  8.47738455E-06  9.98292454E-06  1.02579674E-05  1.07062851E-05  1.36006412E-05  1.11334083E-05  1.04625989E-05  1.24144715E-05  1.41387978E-05  1.42615892E-05
    1.20260041E-05  1.39081252E-05  1.12891896E-05  7.12512652E-06  5.64587931E-06  4.41467178E-06  3.71403111E-06  3.19954873E-06  3.99764225E-06  5.34712274E-06  5.11537942E-06  5.45850834E-06  5.37668706E-06  5.03271916E-06  4.00112469E-06  3.58123300E-06  4.41000315E-06  4.12902498E-06  4.06239517E-06  4.18140443E-06
    4.00887514E-06  3.31407697E-06  2.46929324E-06  2.56232040E-06  2.23426377E-06  1.85236414E-06  1.87044458E-06  1.90830494E-06  2.05679999E-06  1.84149186E-06  2.12562227E-06  2.40725324E-06  2.11391314E-06  2.23360037E-06  2.43438780E-06  3.21674118E-06  3.91561370E-06  5.07774005E-06  7.05462816E-06  6.20011007E-06
    6.68659350E-06  6.02042616E-06  5.43056859E-06  6.85226721E-06  8.31108428E-06  1.02591683E-05  1.12285168E-05  1.47040700E-05  1.77653424E-05  1.66511518E-05  1.87702651E-05  1.55112869E-05  1.11041511E-05  8.13469379E-06  7.65171745E-06  9.65276978E-06  1.11460079E-05  1.42126738E-05  1.46183268E-05  1.20466056E-05
    1.01696754E-05  8.68298607E-06  8.56077679E-06  7.38362399E-06  6.50201362E-06  6.35055973E-06  6.02614323E-06  6.20485448E-06  6.26257603E-06  6.46184366E-06  5.95068093E-06  5.42499556E-06  5.70097524E-06  5.78601059E-06  5.60117296E-06  4.94764916E-06  4.18765980E-06  3.66140579E-06  3.38465964E-06  3.98660960E-06
    4.47916979E-06  4.47156216E-06  4.61492685E-06  4.54572106E-06  4.75550407E-06  4.40069223E-06  4.99300344E-06  6.39039171E-06  6.32303090E-06  6.92057900E-06  7.77232254E-06  9.62533576E-06  9.57612866E-06  9.91345473E-06  1.29582560E-05  1.11754722E-05  1.03727614E-05  1.14720558E-05  1.46222714E-05  1.56005734E-05
    1.25156108E-05  1.39727024E-05  1.15237751E-05  7.71832369E-06  5.85297899E-06  4.83181123E-06  4.25792755E-06  3.27780875E-06  3.79010251E-06  4.88481109E-06  4.93638943E-06  5.21050731E-06  5.20595902E-06  5.43363833E-06  4.33855742E-06  3.83329656E-06  4.57090347E-06  4.39662291E-06  4.27416694E-06  4.07847161E-06
    4.24679362E-06  3.78708672E-06  2.89165550E-06  3.01450136E-06  2.59153286E-06  2.09767651E-06  1.87142486E-06  1.86861378E-06  2.10236709E-06  1.91880230E-06  2.27210273E-06  2.56795929E-06  2.36586939E-06  2.36888677E-06  2.37992933E-06  3.08000689E-06  3.55352779E-06  4.67284950E-06  6.68306086E-06  6.39945172E-06
    6.42651739E-06  6.28937999E-06  5.84316705E-06  6.80468703E-06  8.26030015E-06  1.04423910E-05  1.09391100E-05  1.44261960E-05  1.76205075E-05  1.79260233E-05  2.16395369E-05  1.99199463E-05  1.57280159E-05  1.01948315E-05  8.30595394E-06  9.22971999E-06  1.03028656E-05  1.40695210E-05  1.59022315E-05  1.44333742E-05
    1.15009498E-05  9.03610843E-06  8.62590333E-06  7.37492455E-06  6.59745019E-06  6.37047401E-06  6.13460939E-06  6.26417794E-06  6.31548028E-06  6.82577638E-06  6.21853445E-06  5.48164170E-06  5.54512765E-06  5.67032888E-06  5.65144903E-06  5.03870636E-06  4.36731902E-06  3.73306600E-06  3.25374681E-06  3.64585134E-06
    4.04872195E-06  4.27450880E-06  4.50446246E-06  4.72292655E-06  5.09514343E-06  4.52065619E-06  4.92127820E-06  6.08641368E-06  6.38699871E-06  6.65156385E-06  7.04215348E-06  9.12278856E-06  9.13225103E-06  9.56215635E-06  1.25575078E-05  1.14686868E-05  1.02024670E-05  9.88624453E-06  1.34294815E-05  1.58319678E-05
    1.33854216E-05  1.47996734E-05  1.23499285E-05  8.55926520E-06  5.88286338E-06  4.95936685E-06  4.70853904E-06  3.48131145E-06  3.76097226E-06  4.62749353E-06  4.91271824E-06  5.00383496E-06  4.89335472E-06  5.47934622E-06  4.45520072E-06  3.98136959E-06  4.65135386E-06  4.82387946E-06  4.82272494E-06  4.22992213E-06
    4.45325292E-06  4.06336859E-06  3.22640370E-06  3.43008687E-06  3.08192709E-06  2.57783887E-06  2.04545195E-06  1.91599313E-06  2.08875899E-06  1.90721572E-06  2.29659739E-06  2.61968591E-06  2.63907060E-06  2.60845691E-06  2.51210285E-06  3.12789393E-06  3.33166979E-06  4.22914023E-06  5.84452860E-06  6.12889678E-06
    5.92992771E-06  6.16849188E-06  6.04273590E-06  6.62470904E-06  8.16695441E-06  1.06818363E-05  1.10858689E-05  1.45572259E-05  1.72350510E-05  1.82399748E-05  2.23397783E-05  2.30319083E-05  2.15106031E-05  1.38013024E-05  1.02650826E-05  9.67145666E-06  9.66328578E-06  1.29109350E-05  1.54716029E-05  1.61325872E-05
    1.29523230E-05  9.69880797E-06  8.81040904E-06  7.27717269E-06  6.47952130E-06  6.09611158E-06  5.97009357E-06  6.02540324E-06  6.09387648E-06  7.04146054E-06  6.57870376E-06  5.68543029E-06  5.47418943E-06  5.54846417E-06  5.62512756E-06  5.04871153E-06  4.46036344E-06  3.84676573E-06  3.24872778E-06  3.45009574E-06
    3.72593258E-06  3.96372885E-06  4.08440067E-06  4.56915896E-06  5.28564164E-06  4.69898717E-06  4.98842011E-06  5.91335869E-06  6.59009224E-06  6.54176500E-06  6.39928421E-06  8.25153001E-06  8.38222156E-06  9.07932461E-06  1.21136980E-05  1.23768557E-05  1.07917473E-05  8.76665668E-06  1.13549784E-05  1.40355583E-05
    1.32023027E-05  1.51820493E-05  1.36509533E-05  1.01907991E-05  6.25315162E-06  5.05960438E-06  4.94882154E-06  3.67109498E-06  3.73357554E-06  4.37247563E-06  4.95403039E-06  4.96001980E-06  4.74345040E-06  5.46255049E-06  4.45464014E-06  3.94819568E-06  4.39677892E-06  5.01074757E-06  5.50329372E-06  4.74476506E-06
    4.98762884E-06  4.42101468E-06  3.51871526E-06  3.64368973E-06  3.46269051E-06  3.17499034E-06  2.37785368E-06  2.12202060E-06  2.16660788E-06  1.92605056E-06  2.26114872E-06  2.52866530E-06  2.76994839E-06  2.76573931E-06  2.70695932E-06  3.34339176E-06  3.37225346E-06  4.06917306E-06  5.09254944E-06  5.50351853E-06
    5.57871462E-06  5.98331915E-06  6.10381271E-06  6.26167702E-06  7.72934992E-06  1.03683651E-05  1.11836776E-05  1.51049141E-05  1.76239317E-05  1.90914824E-05  2.21730804E-05  2.40773332E-05  2.60262052E-05  1.81205953E-05  1.37660070E-05  1.14803948E-05  1.00812773E-05  1.21760211E-05  1.43762378E-05  1.66909995E-05
    1.39302026E-05  1.05060881E-05  9.20015347E-06  7.33714928E-06  6.45058124E-06  5.84500489E-06  5.77250391E-06  5.65760421E-06  5.61348937E-06  6.84202577E-06  6.81969540E-06  6.00342601E-06  5.53147955E-06  5.50219086E-06  5.62355230E-06  5.08511316E-06  4.45421666E-06  3.86811645E-06  3.28932280E-06  3.35284385E-06
    3.56177926E-06  3.78428490E-06  3.67128640E-06  4.15988547E-06  5.10432017E-06  4.73958938E-06  4.98420330E-06  5.73173018E-06  6.93600087E-06  6.81482213E-06  6.18051159E-06  7.50059379E-06  7.45591537E-06  8.12159521E-06  1.07797967E-05  1.30727508E-05  1.22575350E-05  8.69862098E-06  9.95003076E-06  1.16385485E-05
    1.17325297E-05  1.38571162E-05  1.41044749E-05  1.22857233E-05  7.18628602E-06  5.50075853E-06  5.24190935E-06  3.92687233E-06  3.70417339E-06  4.02428874E-06  4.80946600E-06  4.85562991E-06  4.71017526E-06  5.58939302E-06  4.62324252E-06  3.96121386E-06  3.98139471E-06  4.71409747E-06  5.73313808E-06  5.31672761E-06
    5.89576981E-06  5.15187971E-06  4.04772747E-06  3.83338899E-06  3.66945094E-06  3.66623103E-06  2.73863869E-06  2.42751537E-06  2.34743850E-06  2.05184969E-06  2.30116521E-06  2.46139959E-06  2.80057851E-06  2.74755023E-06  2.77146181E-06  3.47214761E-06  3.52609611E-06  4.22386554E-06  4.80044876E-06  5.08500668E-06
    5.38852938E-06  5.94222909E-06  6.29814579E-06  6.03194540E-06  7.20756122E-06  9.42927540E-06  1.05999167E-05  1.49805089E-05  1.81844643E-05  2.10878758E-05  2.30841348E-05  2.50321044E-05  2.86678957E-05  2.16012881E-05  1.78814495E-05  1.43830574E-05  1.18039511E-05  1.25991394E-05  1.39941144E-05  1.71071669E-05
    1.46281598E-05  1.13180966E-05  9.64618027E-06  7.59685258E-06  6.62369439E-06  5.80619527E-06  5.81565180E-06  5.50451122E-06  5.19212085E-06  6.32721471E-06  6.75020352E-06  6.26353124E-06  5.64707521E-06  5.55073736E-06  5.69111793E-06  5.22918846E-06  4.51195726E-06  3.82781796E-06  3.30248169E-06  3.26372146E-06