# File generated by Flopy version 3.5.0 on 03/08/2024 at 15:39:54.
BEGIN options
END options

BEGIN griddata
  icelltype
    CONSTANT  0
  k
    INTERNAL  FACTOR  1.0
    3.99210200E-05  1.98948946E-05  4.36987240E-05  2.36427387E-05  8.24034101E-06  1.19289881E-05  3.47844200E-05  7.28079317E-05  3.02493567E-04       0.00136273       0.00284949       0.00339857       0.00139354  6.42223554E-04  3.55189152E-04  2.16263047E-04  1.19928735E-04  1.57829498E-04  5.63796786E-05  2.03899267E-05
    1.01925845E-05  1.26937490E-05  1.84442993E-05  1.93191423E-05  2.00026642E-05  5.53434992E-05  6.25469890E-05  2.41518791E-05  1.26523420E-05  1.72719729E-05  2.61382687E-05  5.87360297E-05  1.97878701E-04  3.98351472E-04  9.23131145E-04  6.27945686E-04  6.92118671E-04  5.36041271E-04  3.75817879E-04  2.47436610E-04
    1.22263480E-04  2.37696680E-05  9.04461544E-06  1.07426638E-05  2.47466014E-05  2.30124731E-05  5.39302109E-05  7.18913441E-05  4.45952168E-05  2.04869709E-05  1.15022184E-05  1.78684894E-05  4.34021684E-05  1.65103466E-04  2.02904991E-04  1.62770472E-04  7.73709820E-05  3.36206504E-05  5.95936759E-05  1.81260518E-04
    1.24935873E-04  1.55130557E-04  1.48851789E-04  1.78646007E-04  1.40179811E-04  2.65986149E-04  4.51300860E-04  5.33755603E-04  4.79707502E-04  4.25616728E-04  3.03834126E-04  4.16752826E-05  3.90792270E-06  1.39998667E-06  7.89891323E-07  8.83203925E-07  2.54165778E-06  7.05845064E-06  3.18838979E-05  4.32575825E-05
    5.08293434E-05  5.29708410E-05  3.89437254E-05  7.75704403E-06  1.02006570E-05  5.34457573E-05  1.48966087E-04  1.25004852E-04  1.46076784E-04  1.80892695E-04  1.52404830E-04  6.69184870E-05  6.65326324E-05  1.37931370E-04  1.01379302E-04  4.74813477E-05  6.77274515E-05  1.24616920E-04  4.41001928E-05  2.54208793E-05
    4.11547818E-05  1.82621800E-05  4.37682185E-05  2.43832525E-05  8.75268571E-06  1.20244526E-05  3.84145670E-05  8.06501929E-05  3.11571211E-04       0.00128708       0.00317025       0.00443750       0.00179388  7.11666039E-04  4.18521231E-04  2.45726160E-04  1.16937521E-04  1.45987327E-04  5.57370880E-05  2.18985948E-05
    1.05818068E-05  1.37332190E-05  1.91569449E-05  1.96446578E-05  1.94472683E-05  5.99739133E-05  6.82645099E-05  2.72115924E-05  1.20932753E-05  1.92336656E-05  2.94786446E-05  5.69372117E-05  1.77164176E-04  4.09421768E-04       0.00101398  6.75784762E-04  6.49062434E-04  5.07570341E-04  3.38662062E-04  2.21156043E-04
    1.04511835E-04  2.14177128E-05  9.26516991E-06  1.02255387E-05  2.41401285E-05  2.13078827E-05  4.96511855E-05  6.73788387E-05  4.41244520E-05  2.04636145E-05  1.14673152E-05  1.64918754E-05  4.48704110E-05  1.68461138E-04  1.79347443E-04  1.40222328E-04  7.62684188E-05  3.49782981E-05  5.84005323E-05  1.77555158E-04
    1.22167462E-04  1.61875608E-04  1.53467341E-04  1.75543616E-04  1.41826464E-04  2.99710743E-04  4.84557093E-04  6.04008613E-04  4.80328256E-04  4.02985603E-04  2.74825357E-04  4.41237555E-05  3.95687099E-06  1.32901657E-06  8.11091528E-07  9.86985948E-07  2.66971143E-06  7.33616667E-06  3.32979755E-05  4.60067570E-05
    5.42317612E-05  5.31745077E-05  3.74865963E-05  7.92456000E-06  1.02307399E-05  5.33792086E-05  1.55142439E-04  1.32125011E-04  1.58962690E-04  2.03642297E-04  1.80119504E-04  7.13906410E-05  6.62428360E-05  1.38764919E-04  1.03079889E-04  4.53951442E-05  5.40568909E-05  1.06098975E-04  4.21822675E-05  2.44989829E-05
    4.34641127E-05  1.80199415E-05  4.03793567E-05  2.40468799E-05  8.76311274E-06  1.22768448E-05  4.13418015E-05  8.45681242E-05  3.22331562E-04       0.00117089       0.00327891       0.00546793       0.00216670  7.94706521E-04  4.79131492E-04  2.81152551E-04  1.16094987E-04  1.30914797E-04  5.69317041E-05  2.41487435E-05
    1.20410149E-05  1.49515949E-05  1.96759074E-05  2.02214777E-05  1.99451393E-05  6.37588606E-05  7.18536673E-05  2.86760428E-05  1.18524876E-05  2.09949512E-05  3.31485386E-05  5.60057784E-05  1.56276513E-04  4.20280282E-04       0.00101549  6.80337287E-04  6.33587927E-04  5.16747050E-04  3.40115563E-04  2.07730337E-04
    8.84671424E-05  2.03788217E-05  9.71625012E-06  1.03087609E-05  2.27527026E-05  1.95578077E-05  4.48101999E-05  6.00578022E-05  4.24122754E-05  2.09025018E-05  1.17368024E-05  1.63736522E-05  4.87202390E-05  1.72995854E-04  1.67388961E-04  1.23087792E-04  8.24570228E-05  3.75065684E-05  5.94436048E-05  1.76284191E-04
    1.28514944E-04  1.78894312E-04  1.53520956E-04  1.59895814E-04  1.45732582E-04  3.26690960E-04  5.35727769E-04  6.54643513E-04  5.04895994E-04  3.97318361E-04  2.63860947E-04  4.99455519E-05  4.33769778E-06  1.39909358E-06  8.66520477E-07  1.12232051E-06  2.88577072E-06  7.89810476E-06  3.51118072E-05  5.21698762E-05
    6.08119728E-05  5.43498120E-05  3.60007532E-05  8.54677276E-06  1.13326592E-05  5.20930602E-05  1.51028798E-04  1.30168842E-04  1.68786227E-04  2.38245391E-04  2.13708259E-04  7.81100229E-05  7.25802109E-05  1.36908976E-04  1.03305340E-04  3.97816267E-05  4.67126775E-05  9.34652137E-05  4.25749755E-05  2.37030258E-05
    4.49402056E-05  1.65332580E-05  3.70448956E-05  2.22235983E-05  9.20376458E-06  1.22543912E-05  4.31367740E-05  8.99536978E-05  3.50872166E-04       0.00114820       0.00366511       0.00657019       0.00269358  8.61778889E-04  5.84420360E-04  3.24372726E-04  1.13852243E-04  1.12107805E-04  5.38677790E-05  2.62776356E-05
    1.33099972E-05  1.54923158E-05  2.01725641E-05  2.18842467E-05  2.06477369E-05  6.31059130E-05  6.98830241E-05  2.96737560E-05  1.14924611E-05  2.21441141E-05  3.79384023E-05  5.84786218E-05  1.57240305E-04  4.43708070E-04       0.00102931  7.26415536E-04  6.51244286E-04  5.36062660E-04  3.43165950E-04  1.88282760E-04
    7.41709015E-05  1.82910955E-05  1.08218715E-05  1.03372449E-05  2.21817145E-05  1.84307796E-05  4.18731636E-05  5.44209507E-05  3.98302073E-05  2.08548143E-05  1.30959202E-05  1.82643825E-05  5.69374662E-05  1.80787478E-04  1.60193026E-04  1.14968874E-04  8.87255911E-05  4.07003933E-05  6.06084365E-05  1.68203912E-04
    1.31783876E-04  1.87548127E-04  1.45248071E-04  1.44289017E-04  1.44604430E-04  3.52214417E-04  5.62934469E-04  7.16893151E-04  5.35759202E-04  3.87085312E-04  2.54189164E-04  5.10710456E-05  4.56488468E-06  1.46195250E-06  9.47295450E-07  1.24427413E-06  2.97190472E-06  7.80004944E-06  3.55849121E-05  5.67290694E-05
    6.87936619E-05  5.34098454E-05  3.46333841E-05  9.46232735E-06  1.23264282E-05  4.89718395E-05  1.40491776E-04  1.18703408E-04  1.67669687E-04  2.39675335E-04  2.29258046E-04  8.46229664E-05  7.90970730E-05  1.40507074E-04  1.01297267E-04  3.74704770E-05  4.13054660E-05  8.52339083E-05  4.48694844E-05  2.35682195E-05
    4.41647045E-05  1.49903129E-05  3.13025354E-05  2.09327515E-05  9.67560090E-06  1.22051039E-05  4.34916757E-05  9.26685171E-05  3.64122135E-04       0.00112472       0.00375590       0.00710959       0.00276171  8.87915534E-04  6.62579360E-04  3.45853003E-04  1.04379349E-04  8.87487516E-05  4.94150738E-05  2.59027813E-05
    1.30291175E-05  1.47088712E-05  2.08923794E-05  2.44535092E-05  2.14273275E-05  5.93111843E-05  6.80049007E-05  3.04905369E-05  1.10720469E-05  2.16133779E-05  3.86363593E-05  5.65919701E-05  1.43433244E-04  4.28383755E-04  9.52169267E-04  7.22383801E-04  6.34172016E-04  5.23129992E-04  3.20033501E-04  1.64265617E-04
    5.62798056E-05  1.67753103E-05  1.13306441E-05  1.06246201E-05  2.22788057E-05  1.99460110E-05  4.49808016E-05  5.37212850E-05  3.57796194E-05  2.10128242E-05  1.49914775E-05  2.10412496E-05  6.19844827E-05  1.71681004E-04  1.47251440E-04  9.99610188E-05  8.94903344E-05  4.28685270E-05  6.10338725E-05  1.67779503E-04
    1.32311573E-04  1.88271994E-04  1.36415713E-04  1.21759148E-04  1.37176844E-04  3.55503888E-04  5.91892757E-04  7.68895791E-04  5.56815007E-04  3.93160157E-04  2.25156030E-04  4.93869346E-05  4.49884424E-06  1.59477205E-06  1.06607447E-06  1.38510059E-06  2.90422572E-06  7.85798155E-06  3.56097499E-05  6.01081102E-05
    6.81293928E-05  5.04348663E-05  3.13342885E-05  9.63657024E-06  1.18752018E-05  4.19894424E-05  1.22478520E-04  1.11288639E-04  1.61964532E-04  2.38766971E-04  2.36491297E-04  9.16475674E-05  9.25590328E-05  1.46373813E-04  1.13987347E-04  3.92764775E-05  4.09956075E-05  8.53300894E-05  4.84731716E-05  2.54669691E-05
    4.94673978E-05  1.45318846E-05  2.59317788E-05  1.86399806E-05  1.00401875E-05  1.28356297E-05  4.38804978E-05  9.88789026E-05  4.05920832E-04       0.00120838       0.00428510       0.00778315       0.00317431  9.98067504E-04  7.80023235E-04  3.76822043E-04  9.49923214E-05  7.76721847E-05  4.87612208E-05  2.63959307E-05
    1.24280387E-05  1.38417527E-05  2.22428490E-05  2.82572845E-05  2.18451410E-05  5.46925575E-05  6.19696300E-05  3.12118883E-05  1.06626867E-05  2.07419715E-05  3.84956029E-05  5.66599775E-05  1.35173884E-04  4.27582406E-04  8.65285517E-04  7.42977574E-04  6.59375339E-04  5.47020344E-04  3.12645265E-04  1.43853110E-04
    4.82263941E-05  1.59848802E-05  1.21632673E-05  1.04350820E-05  2.20058870E-05  2.23902113E-05  4.88656167E-05  5.12020322E-05  3.11805664E-05  2.03186196E-05  1.75372406E-05  2.34179837E-05  6.73849520E-05  1.65060000E-04  1.32337134E-04  8.68568148E-05  8.42006589E-05  4.38001887E-05  6.46779245E-05  1.85198880E-04
    1.47731776E-04  1.97834070E-04  1.23867324E-04  1.08861656E-04  1.29689009E-04  3.76918895E-04  5.99360372E-04  7.85480890E-04  5.92358547E-04  3.96197461E-04  2.00526306E-04  4.62738964E-05  4.53887613E-06  1.76181664E-06  1.12433562E-06  1.38073199E-06  2.70285912E-06  7.67117499E-06  3.48891925E-05  5.48590544E-05
    6.34952912E-05  4.63297810E-05  2.89095304E-05  9.72613906E-06  1.13142581E-05  3.46097751E-05  1.07448212E-04  1.04749738E-04  1.68908804E-04  2.46936725E-04  2.52900935E-04  1.02766557E-04  1.05501050E-04  1.53142264E-04  1.13546846E-04  4.01132245E-05  4.14886681E-05  8.07877808E-05  4.81132209E-05  2.49929068E-05
    5.93844244E-05  1.49103897E-05  2.19505781E-05  1.70620372E-05  1.06549226E-05  1.31826420E-05  4.32618438E-05  1.02971306E-04  4.60700510E-04       0.00133177       0.00454473       0.00854314       0.00366550       0.00112379  8.89460741E-04  3.75334019E-04  8.45964127E-05  6.20336430E-05  4.63624928E-05  2.53864466E-05
    1.12514118E-05  1.27807999E-05  2.43658670E-05  3.45115312E-05  2.48801194E-05  5.08403685E-05  6.08616923E-05  3.31133144E-05  1.05386535E-05  1.90963186E-05  3.80163817E-05  5.84902103E-05  1.34803572E-04  4.03216177E-04  7.78441436E-04  7.43253365E-04  7.11801043E-04  5.60884733E-04  2.83028900E-04  1.23145618E-04
    3.89425291E-05  1.48308419E-05  1.24557552E-05  9.89505282E-06  2.16590349E-05  2.39090871E-05  5.06940521E-05  4.52811327E-05  2.59555292E-05  1.99890571E-05  2.02094421E-05  2.58493571E-05  7.13121111E-05  1.54359395E-04  1.29692165E-04  7.98621227E-05  8.06395072E-05  4.20388028E-05  6.64793596E-05  2.02607140E-04
    1.67231736E-04  1.99947447E-04  1.16787029E-04  9.36731684E-05  1.29099659E-04  3.63409450E-04  5.71519195E-04  7.79004936E-04  5.96374644E-04  3.73009029E-04  1.61820965E-04  4.12396206E-05  4.62725246E-06  1.97068000E-06  1.25671455E-06  1.34775415E-06  2.51749608E-06  7.74440290E-06  3.22634086E-05  4.86655902E-05
    5.48582383E-05  4.26743269E-05  2.72522987E-05  1.03886393E-05  1.10904095E-05  2.95629195E-05  9.92569580E-05  1.03857831E-04  1.69750684E-04  2.45964524E-04  2.69058548E-04  1.11587113E-04  1.20990949E-04  1.42518776E-04  1.07542065E-04  4.00057013E-05  4.37939978E-05  7.75365033E-05  4.62599373E-05  2.40888735E-05
    7.09403042E-05  1.53114576E-05  1.92079933E-05  1.59009216E-05  1.11969299E-05  1.27447761E-05  3.91151503E-05  1.00700931E-04  5.07281099E-04       0.00132389       0.00465663       0.00845749       0.00404590       0.00128793       0.00102864  4.14691294E-04  8.07934646E-05  5.51781118E-05  4.54660917E-05  2.45748851E-05
    1.08952969E-05  1.24092974E-05  2.81759679E-05  4.36999331E-05  2.67938117E-05  4.84419525E-05  6.02877941E-05  3.76576710E-05  1.03476193E-05  1.76807597E-05  3.84876763E-05  6.21908100E-05  1.32896422E-04  3.87378448E-04  7.27077980E-04  8.38661589E-04  8.29711770E-04  5.91733089E-04  2.74837376E-04  1.08494713E-04
    3.23757870E-05  1.35420748E-05  1.28817632E-05  9.46049172E-06  2.04663562E-05  2.63377201E-05  5.38350457E-05  4.13715741E-05  2.32088136E-05  2.04129636E-05  2.57697920E-05  2.97914924E-05  7.41262384E-05  1.48638742E-04  1.32271637E-04  7.94658456E-05  7.59227942E-05  4.16651657E-05  7.12373991E-05  2.22097167E-04
    1.82658082E-04  2.05846195E-04  1.13606235E-04  9.49551105E-05  1.32490033E-04  3.67825927E-04  5.63638179E-04  8.02017100E-04  6.31184644E-04  3.57221073E-04  1.30629561E-04  3.57624246E-05  4.43998387E-06  2.26743525E-06  1.41455655E-06  1.41206395E-06  2.53590635E-06  8.42646053E-06  3.26158388E-05  4.46647903E-05
    4.98537129E-05  4.20050141E-05  2.79816454E-05  1.14482781E-05  1.07511120E-05  2.68200385E-05  9.98782685E-05  1.06967225E-04  1.66920428E-04  2.44165404E-04  2.79048148E-04  1.24828402E-04  1.29398657E-04  1.31952843E-04  9.91433841E-05  4.12790108E-05  4.57557843E-05  7.50908682E-05  4.81111618E-05  2.52219267E-05
    7.61561548E-05  1.52716396E-05  1.57871948E-05  1.38912105E-05  1.05453813E-05  1.13235797E-05  3.28487278E-05  9.83342108E-05  5.35768381E-04       0.00136239       0.00443349       0.00841711       0.00432060       0.00148864       0.00114306  4.14060173E-04  7.68693530E-05  4.81533317E-05  4.00558370E-05  2.15078156E-05
    9.25386151E-06  1.14782897E-05  2.97355738E-05  4.96880464E-05  2.83187251E-05  4.46294064E-05  6.00784542E-05  4.02428365E-05  1.01266250E-05  1.71758152E-05  4.00407619E-05  6.58702583E-05  1.23698746E-04  3.23923717E-04  6.03098933E-04  8.57613879E-04  8.67732617E-04  5.94469154E-04  2.44711567E-04  9.80127841E-05
    2.64324377E-05  1.23235048E-05  1.25170083E-05  8.66193411E-06  1.91913747E-05  2.90382468E-05  5.53240460E-05  3.81686910E-05  2.04054977E-05  2.22835865E-05  3.22585643E-05  3.47341582E-05  7.67393402E-05  1.43220294E-04  1.35007857E-04  7.16493730E-05  6.83590458E-05  4.06358180E-05  7.68125879E-05  2.32701890E-04
    1.92030747E-04  2.02531070E-04  1.13860236E-04  9.21182622E-05  1.34421155E-04  3.55157648E-04  5.57924641E-04  8.20667361E-04  6.37899267E-04  3.44873158E-04  1.07208914E-04  3.16147038E-05  4.75596232E-06  2.73376699E-06  1.62689443E-06  1.53983466E-06  2.72232550E-06  1.05698505E-05  3.42017606E-05  4.35838482E-05
    4.49764257E-05  4.21775663E-05  2.80079155E-05  1.20823314E-05  1.01649026E-05  2.41676837E-05  9.08527431E-05  9.80430901E-05  1.49536191E-04  2.30321953E-04  2.85479968E-04  1.32427468E-04  1.35172161E-04  1.19234007E-04  9.26068446E-05  4.28671956E-05  4.81293823E-05  7.24841476E-05  5.09346707E-05  2.71063934E-05
    8.25355607E-05  1.49327668E-05  1.37207687E-05  1.27238248E-05  1.02429048E-05  1.00975211E-05  2.92146218E-05  9.60389905E-05  5.75476695E-04       0.00130898       0.00411198       0.00798339       0.00490825       0.00173701       0.00120987  4.13779721E-04  7.95879012E-05  4.50622488E-05  3.84184058E-05  1.89714324E-05
    8.61039970E-06  1.09771513E-05  3.19967267E-05  5.66603620E-05  3.01064523E-05  4.42162454E-05  5.58725395E-05  3.92905480E-05  9.06265045E-06  1.50078637E-05  3.87227619E-05  6.57478583E-05  1.10193265E-04  2.58080291E-04  4.72988288E-04  8.56171997E-04  8.85741676E-04  5.66717794E-04  2.26383827E-04  9.24571544E-05
    2.41335586E-05  1.14386728E-05  1.21620820E-05  8.46093233E-06  1.98499633E-05  3.18676050E-05  5.66438259E-05  3.34781863E-05  1.88494607E-05  2.29797773E-05  3.96018737E-05  3.85858160E-05  7.96141975E-05  1.38541288E-04  1.31938242E-04  6.15856014E-05  5.89352792E-05  3.75546713E-05  7.86703666E-05  2.25331221E-04
    1.83287488E-04  1.92955753E-04  1.15750200E-04  9.57005276E-05  1.41404773E-04  3.67710516E-04  6.27132385E-04  9.38734718E-04  7.27116841E-04  3.55062413E-04  9.75114620E-05  3.22343480E-05  5.56587196E-06  3.41955380E-06  1.91633722E-06  1.68172593E-06  3.14325474E-06  1.26982211E-05  3.59559625E-05  3.87846166E-05
    4.08446210E-05  3.99085382E-05  2.61884906E-05  1.20707592E-05  1.00979824E-05  2.22487390E-05  8.41918848E-05  8.84763349E-05  1.34050600E-04  2.19989520E-04  2.94456388E-04  1.45412814E-04  1.45027629E-04  1.14278570E-04  9.17220778E-05  4.58557270E-05  5.32709846E-05  7.23138243E-05  5.37250130E-05  3.15469695E-05
    7.79534308E-05  1.38523914E-05  1.19950367E-05  1.18124697E-05  9.61169433E-06  8.67563114E-06  2.62506682E-05  9.94258625E-05  6.16735383E-04       0.00132581       0.00399942       0.00812398       0.00567992       0.00197532       0.00133673  4.45205977E-04  8.96543421E-05  4.48048105E-05  3.64027159E-05  1.67461439E-05
    7.52899325E-06  9.99485111E-06  3.24005718E-05  5.74210500E-05  3.10562830E-05  4.03090388E-05  5.20420483E-05  3.73600312E-05  8.00062602E-06  1.28784168E-05  3.72218322E-05  6.47481481E-05  9.76040126E-05  2.08997629E-04  3.94410295E-04  8.75638188E-04  8.85273473E-04  5.30305570E-04  2.05150562E-04  8.91643267E-05
    2.08908158E-05  9.38768730E-06  1.06087508E-05  7.94333858E-06  1.94588787E-05  3.43580215E-05  5.37298554E-05  3.07739254E-05  1.70978609E-05  2.40790815E-05  4.50626148E-05  4.08834025E-05  7.94893928E-05  1.27549260E-04  1.26947395E-04  5.20926598E-05  4.82708673E-05  3.36123016E-05  7.86197441E-05  2.14582111E-04
    1.73595921E-04  1.84290332E-04  1.25881944E-04  9.66549116E-05  1.41195472E-04  3.64560556E-04  7.44977340E-04       0.00115721  8.38762393E-04  3.53722675E-04  9.16220047E-05  3.22314055E-05  6.30997528E-06  4.04661318E-06  2.23122031E-06  1.93067004E-06  3.42101181E-06  1.55252784E-05  3.60965673E-05  3.54657082E-05
    3.81476299E-05  3.95686322E-05  2.43924744E-05  1.17218108E-05  9.06511551E-06  2.06167672E-05  7.60545412E-05  8.11899497E-05  1.18091955E-04  2.21155283E-04  3.15627002E-04  1.56074129E-04  1.51829321E-04  1.15220930E-04  9.61919623E-05  5.23702477E-05  5.83962623E-05  7.13451333E-05  6.02932829E-05  3.64010280E-05
    7.40719335E-05  1.37372076E-05  1.11922926E-05  1.12285629E-05  9.15575584E-06  7.99966468E-06  2.46595640E-05  1.03885959E-04  6.68650259E-04       0.00138645       0.00427121       0.00884175       0.00649653       0.00221368       0.00145713  4.75225582E-04  1.01499623E-04  4.45446439E-05  3.44363640E-05  1.46268680E-05
    6.75869995E-06  9.54445814E-06  3.20913830E-05  6.12150819E-05  3.24549116E-05  4.15954391E-05  5.26112066E-05  3.90201398E-05  7.85481347E-06  1.24530164E-05  3.85994128E-05  6.61801399E-05  8.70262771E-05  1.84793450E-04  3.35809338E-04  8.93128230E-04  8.56465800E-04  4.84560715E-04  1.90009647E-04  8.81472082E-05
    1.84978534E-05  8.23846288E-06  9.51372395E-06  7.71565330E-06  1.95435127E-05  3.75813804E-05  5.60785183E-05  3.05325154E-05  1.79275027E-05  2.70931156E-05  5.05055442E-05  4.50100800E-05  8.29796471E-05  1.31636798E-04  1.29997677E-04  4.64109514E-05  4.10103960E-05  3.18676332E-05  8.04274891E-05  2.10567098E-04
    1.70000900E-04  1.98557079E-04  1.46498327E-04  1.08047887E-04  1.47498469E-04  3.80707415E-04  9.16017263E-04       0.00144047  9.36302461E-04  3.79914997E-04  9.37904283E-05  3.53710556E-05  7.17067714E-06  4.87860491E-06  2.73765514E-06  2.27908550E-06  4.04214731E-06  1.77113050E-05  3.51758209E-05  3.09547538E-05
    3.46668697E-05  4.05429642E-05  2.35432570E-05  1.14614438E-05  8.27236670E-06  1.91419451E-05  7.31048000E-05  7.43540272E-05  1.11005121E-04  2.48158036E-04  3.57734297E-04  1.72500565E-04  1.60454124E-04  1.18822293E-04  1.02347523E-04  5.70888879E-05  5.92023690E-05  6.89009600E-05  6.31763880E-05  4.24069522E-05
    7.27843364E-05  1.49914710E-05  1.09550233E-05  1.06181184E-05  8.88172419E-06  7.55115387E-06  2.24127114E-05  1.03685647E-04  6.49068384E-04       0.00141537       0.00445007       0.00928137       0.00726258       0.00241426       0.00150734  5.03583604E-04  1.14131161E-04  4.55101151E-05  3.19308764E-05  1.30038181E-05
    6.30747250E-06  8.53648897E-06  3.17998400E-05  6.29385576E-05  3.75437267E-05  4.32359917E-05  5.13093203E-05  3.64373311E-05  7.38082314E-06  1.17293581E-05  3.87169522E-05  6.30419636E-05  7.95634705E-05  1.57078561E-04  2.88392095E-04  8.87821894E-04  8.44889441E-04  4.55220956E-04  1.82164559E-04  8.84137743E-05
    1.64718703E-05  7.20067328E-06  8.47573892E-06  7.32496820E-06  1.84631636E-05  3.94972598E-05  5.28782604E-05  3.14022410E-05  1.88495934E-05  2.89273146E-05  5.36502978E-05  4.68954314E-05  9.03251321E-05  1.34098400E-04  1.33104267E-04  4.43135481E-05  3.84442613E-05  3.30094640E-05  8.25633012E-05  2.00950164E-04
    1.85324692E-04  2.17622766E-04  1.81043063E-04  1.20180714E-04  1.65171047E-04  4.06428385E-04       0.00112395       0.00167045  9.78567391E-04  3.59424562E-04  8.97590100E-05  3.42389163E-05  7.68305910E-06  5.41879570E-06  3.06301254E-06  2.61961541E-06  4.53506535E-06  1.98190178E-05  3.33103259E-05  2.67378798E-05
    3.10452638E-05  3.82210848E-05  2.22269376E-05  1.15867343E-05  7.83014906E-06  1.79098434E-05  6.21039715E-05  6.15548888E-05  9.68154939E-05  2.53141022E-04  3.78061849E-04  1.65043804E-04  1.46863860E-04  1.02592503E-04  9.45020069E-05  5.55681042E-05  5.80442371E-05  6.31508901E-05  6.40577164E-05  4.19269886E-05
    7.51084748E-05  1.74648203E-05  1.14424979E-05  1.08945177E-05  8.83793029E-06  7.43859859E-06  2.22494382E-05  1.03282711E-04  6.28095254E-04       0.00137648       0.00467980       0.00926870       0.00765085       0.00249871       0.00154298  5.25653648E-04  1.33002745E-04  4.39461513E-05  3.10833639E-05  1.22749363E-05
    5.95243151E-06  7.62972141E-06  2.98568118E-05  6.76253575E-05  4.60320718E-05  4.83108369E-05  5.23924335E-05  3.51376408E-05  7.61692962E-06  1.15759285E-05  3.89929299E-05  6.35764775E-05  7.31973778E-05  1.40500387E-04  2.49366378E-04  8.66253177E-04  8.25765842E-04  4.32946218E-04  1.84588941E-04  8.90324962E-05
    1.44857438E-05  6.19452621E-06  7.62386921E-06  6.94645328E-06  1.72174687E-05  3.69267796E-05  5.18363748E-05  3.30759207E-05  2.14469144E-05  3.30446006E-05  6.23993355E-05  5.58052517E-05  1.00765946E-04  1.35524622E-04  1.38674591E-04  4.56865172E-05  4.11564956E-05  3.54832888E-05  8.33274792E-05  1.92633584E-04
    1.94902439E-04  2.53336597E-04  2.24049958E-04  1.41419323E-04  1.80901848E-04  4.43399034E-04       0.00138259       0.00198583       0.00103310  3.64009514E-04  8.61835251E-05  3.38370841E-05  8.01276671E-06  5.92031402E-06  3.75254342E-06  3.16536930E-06  5.40527072E-06  2.25599661E-05  3.49563488E-05  2.56165498E-05
    2.82622619E-05  3.53020412E-05  1.99647314E-05  1.11936629E-05  7.54433518E-06  1.53728407E-05  5.25066268E-05  4.95905274E-05  8.11845643E-05  2.45237490E-04  3.74007190E-04  1.60652782E-04  1.33603115E-04  9.19423319E-05  8.61445747E-05  5.21063914E-05  5.42367885E-05  6.19674196E-05  6.65161510E-05  4.45408116E-05
    8.08552235E-05  2.21495534E-05  1.34921983E-05  1.16379026E-05  8.83820076E-06  7.49613226E-06  2.12618805E-05  1.01973994E-04  5.58169229E-04       0.00139241       0.00490432       0.00921370       0.00757085       0.00264184       0.00166200  6.14636101E-04  1.55230945E-04  4.70823731E-05  3.23151594E-05  1.23754646E-05
    5.94873283E-06  7.12700405E-06  3.00875471E-05  7.40220562E-05  5.71550339E-05  5.50656535E-05  5.16963096E-05  3.44638845E-05  7.90620547E-06  1.15874640E-05  3.96181429E-05  6.13241359E-05  7.09889191E-05  1.29723154E-04  2.24424682E-04  7.92543592E-04  7.39835168E-04  4.21025536E-04  1.90348975E-04  9.45947572E-05
    1.33820268E-05  5.73763453E-06  7.32488692E-06  7.01713741E-06  1.56622135E-05  3.59595347E-05  5.02669131E-05  3.62104030E-05  2.24695008E-05  3.58491640E-05  7.21791010E-05  6.76773870E-05  1.11876112E-04  1.32896145E-04  1.31202219E-04  4.75836009E-05  4.05449364E-05  3.60418103E-05  7.83702371E-05  1.73519664E-04
    2.07440619E-04  2.83529669E-04  2.80462061E-04  1.62328203E-04  1.96401321E-04  4.87579224E-04       0.00166222       0.00221997       0.00105346  3.67019531E-04  8.59639808E-05  3.21551409E-05  7.85627545E-06  6.38315856E-06  4.50010281E-06  3.87333780E-06  6.06927748E-06  2.55031322E-05  3.63163605E-05  2.49273094E-05
    2.50071420E-05  3.20179847E-05  1.72695729E-05  1.07218687E-05  6.52685140E-06  1.30516972E-05  4.12630704E-05  4.12975521E-05  6.87275843E-05  2.36276670E-04  3.52290066E-04  1.47385609E-04  1.26749374E-04  9.11100554E-05  8.12705328E-05  4.61427694E-05  4.68050089E-05  5.50266054E-05  6.61386978E-05  4.16252328E-05
    8.37903609E-05  2.66392779E-05  1.41296332E-05  1.18690126E-05  8.89164496E-06  7.97435183E-06  2.16538037E-05  9.64615068E-05  5.07931231E-04       0.00136621       0.00520911       0.00927750       0.00749458       0.00282553       0.00180460  6.91691837E-04  1.84774723E-04  4.97468212E-05  3.38170146E-05  1.20354323E-05
    5.48386602E-06  6.40515235E-06  2.70264947E-05  7.69381246E-05  6.88419170E-05  6.02296862E-05  5.13085471E-05  3.31358842E-05  8.31623066E-06  1.17518173E-05  3.74421738E-05  5.88723467E-05  7.13716492E-05  1.34932091E-04  2.07477453E-04  7.21894901E-04  6.98483717E-04  4.14861548E-04  1.97484169E-04  9.72195957E-05
    1.28596810E-05  5.52845838E-06  7.25063551E-06  6.72109097E-06  1.41289995E-05  3.36738863E-05  4.90663015E-05  3.80373128E-05  2.39164148E-05  3.72947950E-05  7.86506760E-05  8.25354949E-05  1.31331278E-04  1.31626016E-04  1.32707732E-04  5.04279882E-05  4.29651038E-05  3.56144322E-05  6.97607975E-05  1.52359798E-04
    2.04155523E-04  2.94094727E-04  2.95952074E-04  1.76351740E-04  2.22586990E-04  5.43525257E-04       0.00194235       0.00236574       0.00104776  3.83095922E-04  8.90349006E-05  3.10051594E-05  7.62520158E-06  6.58660287E-06  5.34556613E-06  4.55354818E-06  7.02651358E-06  2.93835393E-05  3.83781776E-05  2.48634052E-05
    2.27337681E-05  2.75246838E-05  1.53082554E-05  9.91920252E-06  5.92624883E-06  1.08585915E-05  3.47124246E-05  3.57539091E-05  6.21448317E-05  2.30988172E-04  3.16446208E-04  1.32599216E-04  1.26779031E-04  9.42647883E-05  7.97734448E-05  4.23224984E-05  4.31555489E-05  5.27942647E-05  6.59848283E-05  3.88111098E-05
    8.69312057E-05  2.94222300E-05  1.46359695E-05  1.19945486E-05  9.33886033E-06  8.43064491E-06  2.13613603E-05  9.79008966E-05  4.72719584E-04       0.00143644       0.00562297       0.00905595       0.00699917       0.00283997       0.00183943  7.45762729E-04  2.08547240E-04  5.20945242E-05  3.54655417E-05  1.20714776E-05
    5.05786043E-06  5.24026891E-06  2.37040880E-05  7.56035456E-05  7.71717206E-05  6.20608040E-05  4.91650549E-05  3.07822696E-05  8.64212474E-06  1.07983673E-05  3.46357501E-05  5.21891525E-05  7.28204837E-05  1.28533667E-04  1.78291882E-04  6.20573684E-04  6.28032086E-04  3.99052295E-04  1.92744639E-04  9.29334561E-05
    1.22344483E-05  5.43334587E-06  7.19443531E-06  6.25597726E-06  1.20656564E-05  3.12949111E-05  4.60430585E-05  3.99092778E-05  2.52377671E-05  3.78964346E-05  8.21566137E-05  9.58311068E-05  1.40929228E-04  1.22805994E-04  1.26026052E-04  5.25929505E-05  4.27017585E-05  3.19223741E-05  5.86649552E-05  1.24191616E-04
    2.02731524E-04  2.71707292E-04  2.89760914E-04  1.81736697E-04  2.44242774E-04  5.78817661E-04       0.00227919       0.00259416       0.00112498  4.02444583E-04  9.42268437E-05  2.96512539E-05  7.18878750E-06  6.35489593E-06  5.73390034E-06  4.93111982E-06  7.14002556E-06  2.93100920E-05  3.79748877E-05  2.42445638E-05
    1.94771984E-05  2.31506108E-05  1.29108000E-05  9.47871785E-06  4.95817707E-06  8.59076819E-06  2.71964008E-05  3.14386468E-05  5.77479172E-05  2.23261050E-04  2.89817349E-04  1.21679182E-04  1.20760123E-04  9.33025442E-05  7.59405734E-05  3.99508695E-05  4.19893656E-05  5.10627510E-05  6.44555115E-05  3.35249167E-05
    8.27502273E-05  3.21756053E-05  1.50123141E-05  1.27993958E-05  9.73731824E-06  8.47830279E-06  2.07843110E-05  9.43489448E-05  4.47993923E-04       0.00154323       0.00633716       0.00908422       0.00651357       0.00288127       0.00191477  7.69278008E-04  2.23555301E-04  5.22754869E-05  3.80087658E-05  1.24129018E-05
    4.37824206E-06  4.17275388E-06  1.99358376E-05  6.92472529E-05  7.54068821E-05  5.64363244E-05  4.40277705E-05  2.82065656E-05  8.29872325E-06  1.00687126E-05  3.09220009E-05  5.23207448E-05  7.57284949E-05  1.31650558E-04  1.65473600E-04  5.69893511E-04  5.69145590E-04  3.81769304E-04  1.78534171E-04  8.36593645E-05
    1.14180980E-05  5.61190462E-06  7.13972851E-06  5.50126798E-06  9.41151587E-06  2.63639231E-05  4.07814787E-05  3.89039618E-05  2.48424632E-05  3.76428742E-05  8.47245223E-05  1.00884345E-04  1.39105439E-04  1.09909425E-04  1.26097908E-04  5.65661156E-05  4.32847644E-05  3.02138092E-05  4.91749207E-05  1.12180116E-04
    2.03146839E-04  2.78342475E-04  3.10789080E-04  2.06112118E-04  2.76181026E-04  6.09693181E-04       0.00253327       0.00281922       0.00114085  4.35906148E-04  9.39069219E-05  2.74061801E-05  6.62425189E-06  6.05164502E-06  6.18528359E-06  5.38306624E-06  7.08162276E-06  2.91855765E-05  3.85496172E-05  2.44224380E-05
    1.74045256E-05  2.02675777E-05  1.25509718E-05  9.25422846E-06  4.16007000E-06  6.66098582E-06  2.12719259E-05  2.85417066E-05  5.12934105E-05  2.07946514E-04  2.65632428E-04  1.15882330E-04  1.16759504E-04  9.51499718E-05  7.58306607E-05  4.02144456E-05  4.12397609E-05  5.36501900E-05  6.29844816E-05  3.12414173E-05
    7.77140075E-05  3.33335716E-05  1.57831263E-05  1.45996820E-05  1.06504685E-05  9.32291565E-06  2.04657639E-05  9.33400867E-05  4.28478404E-04       0.00171978       0.00702179       0.00894201       0.00614504       0.00291925       0.00185101  7.58418904E-04  2.18345368E-04  5.22043438E-05  3.92801870E-05  1.22541650E-05