# File generated by Flopy version 3.5.0 on 03/08/2024 at 15:39:53.
BEGIN griddata
  strt
    INTERNAL  FACTOR  1.0
        15.00000000      15.00000000      15.00000000      15.00000000      15.00000000      15.00000000      15.00000000      15.00000000      15.00000000      15.00000000      15.00000000      15.00000000      15.00000000      15.00000000      15.00000000      15.00000000      15.00000000      15.00000000      15.00000000      15.00000000
        15.00000000      15.00000000      15.00000000      15.00000000      15.00000000      15.00000000      15.00000000      15.00000000      15.00000000      15.00000000      15.00000000      15.00000000      15.00000000      15.00000000      15.00000000      15.00000000      15.00000000      15.00000000      15.00000000      15.00000000
        15.00000000      15.00000000      15.00000000      15.00000000      15.00000000      15.00000000      15.00000000      15.00000000      15.00000000      15.00000000      15.00000000      15.00000000      15.00000000      15.00000000      15.00000000      15.00000000      15.00000000      15.00000000      15.00000000      15.00000000
        15.00000000      15.00000000      15.00000000      15.00000000      15.00000000      15.00000000      15.00000000      15.00000000      15.00000000      15.00000000      15.00000000      15.00000000      15.00000000      15.00000000      15.00000000      15.00000000      15.00000000      15.00000000      15.00000000      15.00000000
        15.00000000      15.00000000      15.00000000      15.00000000      15.00000000      15.00000000      15.00000000      15.00000000      15.00000000      15.00000000      15.00000000      15.00000000      15.00000000      15.00000000      15.00000000      15.00000000      15.00000000      15.00000000      15.00000000      15.00000000
        15.36409229      15.35314000      15.33886689      15.34228478      15.33773039      15.32393095      15.31141806      15.28734212      15.26444070      15.25776434      15.27621608      15.29475575      15.29728731      15.28758257      15.28340245      15.26799625      15.22462923      15.18228266      15.15659500      15.12956775
        15.11118029      15.10184641      15.09462200      15.08999315      15.08628606      15.08358201      15.08145048      15.07866589      15.07165566      15.06871798      15.06509214      15.05817460      15.05390303      15.05498434      15.05490654      15.05425270      15.05231896      15.05148788      15.04979869      15.04766435
        15.04622768      15.05222105      15.05936159      15.06138317      15.06088512      15.06087248      15.05807384      15.05748433      15.06034515      15.06503570      15.06867298      15.06736700      15.06113450      15.05491362      15.05164084      15.05097375      15.05491454      15.05731154      15.05307981      15.04954043
        15.05000541      15.05043966      15.04985517      15.05006179      15.05404644      15.05702607      15.05723988      15.05704127      15.05503040      15.05269576      15.05165101      15.05752189      15.07304189      15.07634810      15.07646079      15.07596123      15.07646065      15.07473342      15.06686764      15.06566950
        15.06498581      15.06458229      15.06702395      15.08056079      15.07768453      15.06100944      15.05565004      15.05558936      15.05685490      15.05867866      15.06051045      15.06204828      15.06136996      15.05842886      15.05895113      15.06013302      15.05820054      15.05786029      15.06567460      15.07278298
        15.70339386      15.68601942      15.66230721      15.66398913      15.65686521      15.62851844      15.59508178      15.55187066      15.51597077      15.50428103      15.52217905      15.53875224      15.54228245      15.53396818      15.52973296      15.50698678      15.43828832      15.36024333      15.30442336      15.24840714
        15.21115349      15.19280218      15.18214791      15.17394287      15.16498791      15.15842029      15.15456706      15.14892625      15.13648130      15.12895637      15.12359323      15.11474826      15.10844365      15.10809602      15.10711933      15.10703059      15.10554279      15.10422476      15.10131988      15.09710075
        15.09442815      15.10208757      15.10968334      15.11117126      15.11188715      15.11241566      15.11061227      15.10989186      15.11262810      15.11766831      15.12180433      15.12128095      15.11360518      15.10559100      15.10151504      15.09998610      15.10308467      15.10336934      15.09805067      15.09399568
        15.09435329      15.09462812      15.09400065      15.09547052      15.10216486      15.10731940      15.10847220      15.10846392      15.10650353      15.10318381      15.10114109      15.10454900      15.11240645      15.11394878      15.11429179      15.11418243      15.11401776      15.11324703      15.11089166      15.11118494
        15.11136468      15.11125608      15.11391930      15.12439564      15.12331604      15.10816396      15.10190120      15.10190577      15.10393570      15.10623543      15.10864975      15.11149174      15.11235282      15.10989240      15.11032562      15.11224006      15.11220745      15.11284947      15.12200116      15.12950131
        16.02571918      16.00295712      15.97660156      15.98093139      15.97396666      15.92652316      15.86124479      15.79704466      15.74739457      15.73046409      15.73964198      15.74845012      15.75053501      15.74643853      15.74488163      15.71947477      15.63655285      15.52867153      15.44134013      15.36006006
        15.30799777      15.28392823      15.27137817      15.26029714      15.24499508      15.23283180      15.22701255      15.21870816      15.20025988      15.18834366      15.18045288      15.16962649      15.16152879      15.15958158      15.15821577      15.15911649      15.15831264      15.15662428      15.15272881      15.14719064
        15.14318868      15.15026998      15.15741765      15.15962952      15.16041500      15.16160871      15.16155259      15.16075495      15.16219255      15.16671424      15.17019538      15.16902749      15.16049629      15.15207018      15.14792244      15.14559607      15.14686009      15.14521662      15.13910024      15.13533842
        15.13498550      15.13464464      15.13424685      15.13715874      15.14615950      15.15334903      15.15548687      15.15605740      15.15435740      15.15078880      15.14705955      15.14645536      15.14557365      15.14643574      15.14791453      15.14743023      15.14560706      15.14525990      15.14529755      15.14581089
        15.14597019      15.14640735      15.14912676      15.15689276      15.15641759      15.14643829      15.14188263      15.14282020      15.14495487      15.14697133      15.14964978      15.15392910      15.15665834      15.15543623      15.15654926      15.15969752      15.16139394      15.16245594      15.16979676      15.17658887
        16.35178607      16.31860327      16.28520913      16.29107436      16.28566824      16.22405058      16.11544256      16.02404531      15.95847194      15.93482096      15.93427587      15.93625731      15.93818056      15.93887928      15.93778138      15.91228081      15.82203660      15.68961873      15.57345845      15.47225916
        15.40680127      15.37568052      15.36149314      15.34934013      15.32874069      15.31084464      15.30282052      15.29259419      15.26900220      15.25160724      15.23950263      15.22581912      15.21463843      15.21107088      15.20933324      15.21141248      15.21171351      15.20994732      15.20516503      15.19872615
        15.19391764      15.19944558      15.20486096      15.20592321      15.20696837      15.20959871      15.21041626      15.20888809      15.20919498      15.21391436      15.21808478      15.21497881      15.20506724      15.19663557      15.19239157      15.18905599      15.18793744      15.18433076      15.17809094      15.17529189
        15.17416926      15.17303609      15.17265461      15.17736642      15.18869892      15.19745115      15.20005963      15.20092919      15.19985439      15.19614828      15.19050324      15.18599083      15.17836321      15.17831978      15.17799980      15.17731756      15.17684013      15.17618039      15.17451669      15.17399373
        15.17414068      15.17541913      15.17825513      15.18419000      15.18595855      15.18123426      15.17863543      15.18049503      15.18283123      15.18467010      15.18720703      15.19187086      15.19539230      15.19512399      15.19683859      15.20141961      15.20439500      15.20522484      15.21045811      15.21599708
        16.68201670      16.63533466      16.59282612      16.59448919      16.58948017      16.51457254      16.35429486      16.22939491      16.14865474      16.11811519      16.10986715      16.10881495      16.11301840      16.11612604      16.11455754      16.08964815      15.99551454      15.84014612      15.70087056      15.58503472
        15.50685509      15.46796711      15.45307947      15.44177785      15.41829149      15.39549649      15.38567482      15.37430404      15.34422936      15.31911387      15.30267021      15.28549893      15.27016154      15.26382667      15.26199168      15.26517057      15.26665920      15.26440524      15.25855596      15.25136780
        15.24544990      15.24722054      15.24982778      15.25058632      15.25306519      15.25619951      15.25654961      15.25438236      15.25502962      15.26031436      15.26391462      15.25925131      15.24937383      15.24142724      15.23725702      15.23243331      15.22856618      15.22278850      15.21596699      15.21379094
        15.21248452      15.21090823      15.21103352      15.21759637      15.23112769      15.24054129      15.24333430      15.24464504      15.24393604      15.23966680      15.23235780      15.22420689      15.21094940      15.20800944      15.20775078      15.20775055      15.20600873      15.20312166      15.20090944      15.20003201
        15.20038245      15.20232601      15.20569847      15.21231554      15.21623662      15.21418023      15.21289903      15.21492943      15.21711489      15.21886914      15.22145948      15.22609593      15.22984803      15.22976275      15.23158755      15.23725169      15.24110816      15.24166343      15.24510310      15.24880341
        16.99739482      16.94225049      16.89483523      16.88958850      16.87709022      16.78387286      16.57352617      16.41057464      16.31429459      16.27737836      16.26461210      16.26270675      16.26885504      16.27542752      16.27536016      16.25400444      16.16049125      15.98170738      15.82012477      15.69330433
        15.60792445      15.56339615      15.54603064      15.53535695      15.51092613      15.48582741      15.47449399      15.46196820      15.42468323      15.39250846      15.37036246      15.34791499      15.32711427      15.31750555      15.31579168      15.31992615      15.32177434      15.31873845      15.31228404      15.30450011
        15.29629407      15.29483825      15.29725915      15.29843126      15.29952865      15.30181502      15.30159166      15.29911637      15.30012986      15.30538138      15.30944972      15.30483263      15.29460166      15.28688321      15.28295366      15.27651217      15.26921529      15.26034263      15.25248446      15.25089753
        15.24992614      15.24883136      15.25028264      15.25930918      15.27460475      15.28403012      15.28733280      15.28908935      15.28829225      15.28328352      15.27382028      15.26119408      15.24231072      15.23857006      15.23697768      15.23513582      15.23295021      15.23111397      15.22845546      15.22694257
        15.22696195      15.22934360      15.23318397      15.23958725      15.24371300      15.24461724      15.24468842      15.24638591      15.24775955      15.24953191      15.25224591      15.25690358      15.26035574      15.26045011      15.26274670      15.26908837      15.27346450      15.27424602      15.27745453      15.28145819
        17.29310859      17.24023636      17.18855123      17.17426429      17.15158957      17.04357798      16.78265137      16.57602351      16.46333681      16.42272415      16.40658297      16.40493316      16.41231922      16.42179664      16.42230538      16.40499238      16.31648224      16.12032705      15.93699104      15.79860228
        15.70747440      15.65836137      15.63876004      15.62869434      15.60413940      15.57829246      15.56563195      15.55310129      15.51301480      15.47181504      15.44077576      15.41157990      15.38426483      15.37075147      15.36871268      15.37349586      15.37501194      15.37201480      15.36578050      15.35838709
        15.34830024      15.34466917      15.34475411      15.34304598      15.34367759      15.34648804      15.34626983      15.34409475      15.34542534      15.35153474      15.35607430      15.35068535      15.33992814      15.33246111      15.32818385      15.31986632      15.30955774      15.29799277      15.28951081      15.28787656
        15.28721485      15.28716405      15.29052178      15.30190445      15.31838277      15.32850998      15.33265756      15.33466256      15.33358738      15.32810864      15.31654867      15.29930232      15.27777827      15.27250849      15.26701885      15.26271160      15.26063807      15.25951791      15.25647910      15.25451412
        15.25433074      15.25674275      15.25998834      15.26525670      15.27003045      15.27273279      15.27286067      15.27399446      15.27512925      15.27724140      15.28007755      15.28451976      15.28780739      15.28879531      15.29182606      15.29844525      15.30235194      15.30326307      15.30658318      15.31033411
        17.58034194      17.53610880      17.48261119      17.45799717      17.42433793      17.30505693      16.99413321      16.73222952      16.60392203      16.56081150      16.54213418      16.54139930      16.55029213      16.55900278      16.55774354      16.54280290      16.46461252      16.25895368      16.05383667      15.89797808
        15.80400660      15.75554680      15.73393710      15.72308975      15.69892732      15.67284657      15.65779856      15.64411067      15.60205487      15.55285763      15.51307669      15.47736050      15.44346421      15.42481340      15.42138655      15.42598259      15.42686466      15.42404797      15.41868358      15.41244660
        15.40053666      15.39353812      15.39159598      15.38977139      15.39046102      15.39226908      15.39113668      15.38898061      15.39089718      15.39621391      15.39964345      15.39440743      15.38516427      15.37809014      15.37324464      15.36304199      15.35055614      15.33661983      15.32675490      15.32465595
        15.32454901      15.32599871      15.33152303      15.34449668      15.36246848      15.37392240      15.37956298      15.38153756      15.37988888      15.37379539      15.36037272      15.33850165      15.31098717      15.30227547      15.29619951      15.29236319      15.28962497      15.28824703      15.28519731      15.28272817
        15.28194633      15.28308538      15.28479256      15.28874969      15.29368602      15.29729974      15.29797219      15.29909213      15.30055005      15.30290695      15.30567495      15.30971673      15.31306204      15.31484230      15.31824022      15.32425495      15.32788189      15.32877600      15.33153130      15.33461363
        17.86338907      17.82978877      17.78246617      17.75166615      17.70683628      17.57396817      17.21075532      16.88404338      16.73932926      16.69472593      16.67511592      16.67386474      16.68239399      16.68780275      16.68561008      16.67402473      16.60897879      16.40357116      16.17740767      15.99441754
        15.89730075      15.85402910      15.83128103      15.81930752      15.79586697      15.76950354      15.75246684      15.73756695      15.69542693      15.63974122      15.58933490      15.54719491      15.50725242      15.48322802      15.47725711      15.48038780      15.47997958      15.47678701      15.47243744      15.46713166
        15.45294577      15.44279800      15.43997448      15.43771718      15.43684584      15.43771718      15.43622353      15.43445929      15.43583975      15.44013905      15.44340170      15.43902631      15.43124628      15.42441998      15.41930208      15.40802270      15.39288666      15.37569252      15.36464752      15.36271551
        15.36353943      15.36703474      15.37468972      15.38839096      15.40674829      15.41918899      15.42620835      15.42801548      15.42551761      15.41843544      15.40338011      15.37775489      15.34675755      15.33873943      15.33202127      15.32453114      15.31932971      15.31681216      15.31258984      15.30914147
        15.30773058      15.30812501      15.30907169      15.31210478      15.31629942      15.32085401      15.32199923      15.32318936      15.32460066      15.32699095      15.32929757      15.33256443      15.33556797      15.33799937      15.34168803      15.34725688      15.35016063      15.35061453      15.35267183      15.35501049
        18.15302371      18.13449089      18.09113125      18.05319348      17.99990195      17.85712966      17.42803399      17.02553606      16.86710653      16.82296411      16.80316826      16.80015379      16.80451840      16.80669082      16.80464754      16.79627084      16.74513448      16.55071150      16.30473475      16.08117080
        15.98072283      15.95084221      15.93206770      15.92075512      15.89865741      15.87104412      15.85180950      15.83569763      15.79469372      15.73347932      15.67141378      15.62293594      15.57680534      15.54649093      15.53600422      15.53634233      15.53436860      15.53085422      15.52708583      15.52220498
        15.50477990      15.49246397      15.48875675      15.48584258      15.48457319      15.48555569      15.48390496      15.48256442      15.48338858      15.48695732      15.48883811      15.48499625      15.47838620      15.47230777      15.46718918      15.45514266      15.43731781      15.41722437      15.40552102      15.40379828
        15.40590980      15.41160447      15.42048713      15.43327264      15.45027849      15.46259638      15.46979151      15.47095841      15.46755291      15.46030772      15.44442455      15.41679955      15.38416171      15.37404162      15.36561825      15.35670807      15.34931799      15.34413264      15.33884265      15.33500116
        15.33347818      15.33370432      15.33387277      15.33565231      15.33889280      15.34300629      15.34394192      15.34514573      15.34688076      15.34925553      15.35076503      15.35290963      15.35536663      15.35819587      15.36189808      15.36648577      15.36851968      15.36902316      15.37068201      15.37215088
        18.46042899      18.45409996      18.40674276      18.35838369      18.29758402      18.14096313      17.63958896      17.15451226      16.98292278      16.93909313      16.91875548      16.91351413      16.91451312      16.91440925      16.91202657      16.90730313      16.87139144      16.69957889      16.44420910      16.17418595
        16.07246484      16.05826300      16.03966361      16.02705227      16.00611769      15.97592940      15.95210761      15.93249300      15.88927019      15.82754884      15.75731835      15.70342538      15.65083673      15.61223667      15.59588089      15.59277562      15.58994746      15.58636508      15.58318099      15.57832075
        15.55773990      15.54266992      15.53910792      15.53811516      15.53546359      15.53466685      15.53252183      15.53192373      15.53259863      15.53441962      15.53496465      15.53187139      15.52654034      15.52077677      15.51563439      15.50382500      15.48465656      15.46231426      15.44895015      15.44689017
        15.45118350      15.45839054      15.46727556      15.47808355      15.49279331      15.50361435      15.50948352      15.50937691      15.50544634      15.49844333      15.48279431      15.45526063      15.42210052      15.40994619      15.40089684      15.39046649      15.37923697      15.37069550      15.36527468      15.36093142
        15.35853703      15.35793255      15.35791491      15.35956021      15.36125937      15.36280954      15.36323202      15.36469899      15.36681545      15.36876274      15.36959739      15.37077240      15.37260702      15.37516995      15.37849573      15.38230637      15.38453934      15.38546368      15.38688873      15.38792249
        18.77122355      18.77208107      18.71881363      18.66024588      18.59156017      18.42204322      17.85231187      17.27767623      17.08982102      17.04315106      17.02157857      17.01365196      17.01289678      17.01220412      17.01041679      17.00948165      16.98944497      16.85141403      16.61217188      16.35024944
        16.23165800      16.18684761      16.15073808      16.13420209      16.11431389      16.08060130      16.05109830      16.02664679      15.98138723      15.91934291      15.84328526      15.78591960      15.72722761      15.67980630      15.65638973      15.64926442      15.64608151      15.64294569      15.64057279      15.63551592
        15.61188129      15.59491018      15.59152793      15.59032661      15.58584934      15.58325548      15.58156344      15.58208709      15.58190690      15.58204379      15.58196324      15.57907739      15.57340685      15.56697564      15.56207053      15.55175310      15.53354285      15.51033795      15.49504882      15.49271342
        15.49777418      15.50491177      15.51260907      15.52079915      15.53243417      15.54109519      15.54539983      15.54439522      15.54042863      15.53378713      15.51870137      15.49185000      15.46072437      15.44767116      15.43580371      15.42128834      15.40840062      15.39984030      15.39371322      15.38803978
        15.38362499      15.38150112      15.38068104      15.38071027      15.37986531      15.38004116      15.38048383      15.38211216      15.38421269      15.38572556      15.38622244      15.38710106      15.38851828      15.39083844      15.39397128      15.39761041      15.40004194      15.40127645      15.40261583      15.40352844
        19.06761403      19.07454512      19.01792741      18.94401444      18.86470283      18.68899405      18.05583967      17.39955899      17.19151972      17.14030701      17.11607692      17.10571757      17.10261402      17.10288252      17.10346699      17.10578946      17.09829670      16.99721488      16.78682471      16.54365729
        16.40271763      16.32246852      16.26101249      16.23714827      16.21580259      16.17998170      16.14617906      16.11863399      16.07118074      16.00697982      15.92681814      15.86768417      15.80512850      15.74931597      15.71791126      15.70562868      15.70174357      15.69967119      15.69814120      15.69330266
        15.66741944      15.64806583      15.64305825      15.64142737      15.63674649      15.63281350      15.63098500      15.63116998      15.62925479      15.62793809      15.62742697      15.62447681      15.61817895      15.61127433      15.60637774      15.59796540      15.58164639      15.55932822      15.54166563      15.53804791
        15.54260102      15.54891284      15.55509559      15.56093432      15.56889688      15.57521146      15.57804683      15.57666419      15.57299978      15.56733370      15.55343318      15.52821154      15.49903496      15.48453784      15.47194961      15.45810512      15.44348027      15.43049832      15.42256053      15.41474111
        15.40781774      15.40337258      15.40016067      15.39830922      15.39751383      15.39723078      15.39689030      15.39851142      15.40051934      15.40161704      15.40179071      15.40271771      15.40444175      15.40694740      15.40966073      15.41277576      15.41520008      15.41680347      15.41808590      15.41872759
        19.33300724      19.34205610      19.28912724      19.21041765      19.12471859      18.94359457      18.26269165      17.52124110      17.28956446      17.23092402      17.20451461      17.19226803      17.18687517      17.18773111      17.18957191      17.19426361      17.19494620      17.12860416      16.95001811      16.71252361
        16.55132579      16.44896463      16.36198400      16.32910595      16.30600997      16.27017730      16.23417442      16.20353408      16.15274334      16.08682166      16.00455319      15.94483771      15.88057580      15.81976570      15.78049414      15.76284481      15.75815840      15.75639908      15.75491104      15.75022510
        15.72381387      15.70075135      15.69236176      15.68987707      15.68524620      15.68024365      15.67776198      15.67740079      15.67393570      15.67061469      15.66962469      15.66734134      15.66154889      15.65441730      15.64963079      15.64278737      15.62879768      15.60778706      15.58793272      15.58236491
        15.58551167      15.58972453      15.59392061      15.59783188      15.60286380      15.60632733      15.60762327      15.60599208      15.60299735      15.59864896      15.58724745      15.56478147      15.53965663      15.52668437      15.51408112      15.49734943      15.47714283      15.45986540      15.45013978      15.43989603
        15.42992416      15.42369781      15.41955651      15.41732503      15.41575895      15.41371347      15.41262697      15.41416498      15.41590763      15.41668589      15.41672259      15.41806323      15.42060587      15.42349094      15.42596178      15.42884703      15.43099764      15.43182047      15.43205176      15.43183170
        19.56877077      19.57745637      19.53377759      19.45767886      19.36853776      19.17764843      18.46050911      17.64535441      17.38434054      17.31589122      17.28702388      17.27320274      17.26585660      17.26570419      17.26721766      17.27209978      17.27844265      17.23923424      17.09177175      16.85648245
        16.67667554      16.55881327      16.45145502      16.40877080      16.38418007      16.34909876      16.31208448      16.27827721      16.22691434      16.16015142      16.07737529      16.01635511      15.95175357      15.88848113      15.84358764      15.82097849      15.81525628      15.81266347      15.80981822      15.80376788
        15.77454932      15.75010686      15.74050408      15.73537494      15.73004262      15.72478533      15.72191110      15.72077940      15.71618501      15.71143480      15.71013458      15.70835467      15.70315846      15.69652473      15.69274875      15.68785761      15.67638465      15.65633765      15.63463726      15.62629674
        15.62706440      15.62815917      15.63007356      15.63227575      15.63432396      15.63480108      15.63495329      15.63337221      15.63118883      15.62808144      15.61945353      15.60034674      15.57880135      15.56631080      15.55210795      15.53216523      15.50838211      15.48859452      15.47766606      15.46520700
        15.45290237      15.44505861      15.43980726      15.43515524      15.43076005      15.42843354      15.42783805      15.42922495      15.43074154      15.43131266      15.43146095      15.43331568      15.43608684      15.43896163      15.44132513      15.44400343      15.44523384      15.44512486      15.44478831      15.44440851
        19.78045197      19.79039133      19.75855708      19.68993120      19.59789712      19.39409941      18.64488393      17.75937251      17.47387499      17.39542844      17.36402675      17.34881752      17.33972625      17.33807703      17.33840627      17.34239697      17.35118234      17.33268982      17.21451636      16.98516571
        16.78781278      16.65750280      16.53145376      16.47777758      16.45069318      16.41651539      16.37957683      16.34427883      16.29402842      16.23080507      16.14836061      16.08588965      16.01964226      15.95615890      15.90738828      15.88042627      15.87260865      15.86857275      15.86354794      15.85559611
        15.82445749      15.79863505      15.78562241      15.77745385      15.77090446      15.76542188      15.76225078      15.76075826      15.75662365      15.75248604      15.75073302      15.74846268      15.74357462      15.73827534      15.73607034      15.73324875      15.72392525      15.70593108      15.68276311      15.67083320
        15.66823243      15.66645410      15.66621436      15.66574495      15.66367766      15.66101931      15.66014008      15.65878693      15.65710422      15.65503163      15.64895956      15.63385575      15.61516343      15.60208460      15.58833060      15.57049408      15.54409551      15.51806037      15.50540279      15.49089530
        15.47593239      15.46610390      15.45872035      15.45292814      15.44857458      15.44611507      15.44456479      15.44546159      15.44584596      15.44551083      15.44564025      15.44757090      15.45012098      15.45283647      15.45497774      15.45721305      15.45787502      15.45751536      15.45680414      15.45638935
        19.97444670      19.98510976      19.96269047      19.90610844      19.81679426      19.60029265      18.81854972      17.86653206      17.55475513      17.46779944      17.43510269      17.41900867      17.40892798      17.40572040      17.40405025      17.40669657      17.41645657      17.41239904      17.31694726      17.09528358
        16.87577187      16.73902545      16.60089395      16.53804787      16.50950524      16.47689559      16.44038190      16.40375764      16.35334895      16.29454257      16.21391970      16.14943869      16.08319316      16.02184470      15.97134871      15.94079024      15.93086660      15.92462000      15.91734391      15.90683480