# File generated by Flopy version 3.5.0 on 01/23/2024 at 11:34:46.
BEGIN options
END options

BEGIN timing
  TDIS6  model_files.tdis
END timing

BEGIN models
  gwf6  Reference.nam  Reference
END models

BEGIN exchanges
END exchanges

BEGIN solutiongroup  1
  ims6  model_files.ims  Reference
END solutiongroup  1

