# File generated by Flopy version 3.5.0 on 01/24/2024 at 15:30:40.
BEGIN options
  PRINT_OPTION  summary
  COMPLEXITY  complex
END options

BEGIN linear
  LINEAR_ACCELERATION  bicgstab
END linear

