# File generated by Flopy version 3.5.0 on 01/23/2024 at 11:34:46.
BEGIN options
  PRINT_OPTION  summary
  COMPLEXITY  complex
END options

BEGIN linear
  LINEAR_ACCELERATION  bicgstab
END linear

