# File generated by Flopy version 3.5.0 on 01/23/2024 at 11:34:46.
BEGIN options
  TIME_UNITS  days
END options

BEGIN dimensions
  NPER  1
END dimensions

BEGIN perioddata
       1.00000000  1       1.00000000
END perioddata

