# File generated by Flopy version 3.5.0 on 02/08/2024 at 15:37:08.
BEGIN options
  PRINT_OPTION  summary
  COMPLEXITY  complex
END options

BEGIN linear
  LINEAR_ACCELERATION  bicgstab
END linear

