# File generated by Flopy version 3.5.0 on 01/23/2024 at 15:42:56.
BEGIN options
END options

BEGIN dimensions
  MAXBOUND  5
END dimensions

BEGIN period  1
  1 920 -2.50000000E-03
  1 960 -5.00000000E-03
  1 2920 -2.50000000E-02
  1 2980 -2.50000000E-05
  1 3970 -2.50000000E-04
END period  1

