# File generated by Flopy version 3.5.0 on 02/08/2024 at 15:37:08.
BEGIN griddata
  strt
    INTERNAL  FACTOR  1.0
        15.00000000      15.00000000      15.00000000      15.00000000      15.00000000      15.00000000      15.00000000      15.00000000      15.00000000      15.00000000      15.00000000      15.00000000      15.00000000      15.00000000      15.00000000      15.00000000      15.00000000      15.00000000      15.00000000      15.00000000
        15.00000000      15.00000000      15.00000000      15.00000000      15.00000000      15.00000000      15.00000000      15.00000000      15.00000000      15.00000000      15.00000000      15.00000000      15.00000000      15.00000000      15.00000000      15.00000000      15.00000000      15.00000000      15.00000000      15.00000000
        15.00000000      15.00000000      15.00000000      15.00000000      15.00000000      15.00000000      15.00000000      15.00000000      15.00000000      15.00000000      15.00000000      15.00000000      15.00000000      15.00000000      15.00000000      15.00000000      15.00000000      15.00000000      15.00000000      15.00000000
        15.00000000      15.00000000      15.00000000      15.00000000      15.00000000      15.00000000      15.00000000      15.00000000      15.00000000      15.00000000      15.00000000      15.00000000      15.00000000      15.00000000      15.00000000      15.00000000      15.00000000      15.00000000      15.00000000      15.00000000
        15.00000000      15.00000000      15.00000000      15.00000000      15.00000000      15.00000000      15.00000000      15.00000000      15.00000000      15.00000000      15.00000000      15.00000000      15.00000000      15.00000000      15.00000000      15.00000000      15.00000000      15.00000000      15.00000000      15.00000000
        15.06701512      15.05633173      15.04870449      15.05194063      15.05291188      15.05572150      15.05366009      15.05303634      15.06167087      15.06960918      15.07109540      15.07312368      15.07380411      15.07913895      15.07795381      15.05957342      15.04103237      15.02624274      15.01985125      15.02022017
        15.02125739      15.02411665      15.02441467      15.02321109      15.02516199      15.02914448      15.03535134      15.04269356      15.05027831      15.05675377      15.05820383      15.06188253      15.06208625      15.05601133      15.05504381      15.05564262      15.05653277      15.05334711      15.05183114      15.05289416
        15.04982619      15.05278956      15.05495274      15.05212019      15.05342542      15.05394382      15.05065827      15.05462789      15.05724676      15.05724230      15.05670024      15.04898971      15.04698800      15.04029619      15.04488197      15.04767600      15.05417797      15.06289991      15.07122835      15.06698975
        15.05794450      15.05679681      15.05783392      15.06120299      15.06323674      15.06420344      15.05979848      15.07110265      15.07135827      15.06201256      15.06090833      15.05927824      15.06217244      15.06369020      15.06377938      15.06199239      15.06230676      15.07262458      15.08559077      15.08245941
        15.08403685      15.09092489      15.09292820      15.10662248      15.11065111      15.12230725      15.13894471      15.15564094      15.15813879      15.15645990      15.16735877      15.15657714      15.16223447      15.17392546      15.18688827      15.16187698      15.14379886      15.10251394      15.09117643      15.08013258
        15.13509241      15.11981582      15.10193674      15.09668507      15.09961411      15.10229167      15.10517141      15.10305102      15.11296501      15.12797288      15.13535155      15.13907592      15.14420167      15.14209552      15.14436019      15.12562993      15.09343974      15.06662664      15.04764094      15.04532723
        15.04611132      15.04824191      15.05225379      15.05444477      15.05747820      15.06259104      15.07154909      15.08231577      15.09517842      15.10637383      15.11343765      15.11652304      15.12111784      15.11297642      15.10757867      15.10615516      15.10496045      15.10392048      15.10120695      15.10080337
        15.09980330      15.09776171      15.10256531      15.10036832      15.09924035      15.10155146      15.10275332      15.10374421      15.11294135      15.10924162      15.11089083      15.10208933      15.09829356      15.09148194      15.09595857      15.10071427      15.10345213      15.11176267      15.12493051      15.13072886
        15.12362058      15.11888192      15.11478808      15.11572256      15.11697256      15.12201248      15.12009724      15.12399133      15.13411768      15.12400937      15.11686352      15.11428412      15.11395908      15.12058055      15.12570792      15.12611880      15.12494359      15.13774441      15.15169445      15.15758908
        15.15599650      15.16963252      15.17475474      15.19134899      15.20530336      15.22356751      15.24470229      15.26434164      15.28236899      15.29371848      15.31611938      15.32076242      15.31143022      15.31572336      15.32891229      15.30936684      15.28066709      15.23176247      15.18703706      15.18186237
        15.19648927      15.18391482      15.16624294      15.14870445      15.14328337      15.14620536      15.15060753      15.15292487      15.16101071      15.17774358      15.18796899      15.19581319      15.20197233      15.20101638      15.19639835      15.18828508      15.15490568      15.12316598      15.08929399      15.07674117
        15.07413411      15.07566589      15.08249387      15.09118334      15.09433019      15.09967111      15.10694117      15.12311554      15.13958795      15.15404776      15.16359501      15.17055436      15.17208218      15.17226789      15.16047967      15.15634493      15.15052690      15.15045247      15.14868619      15.14776958
        15.14592868      15.14307628      15.14715976      15.14671537      15.14140567      15.14397931      15.15077227      15.15295833      15.16269119      15.16084726      15.15867158      15.15580628      15.14874198      15.14653163      15.14629657      15.15238831      15.15368216      15.15863093      15.17012867      15.18566955
        15.18454316      15.18034221      15.17229050      15.16502911      15.16667356      15.17270195      15.17592789      15.17542534      15.18417734      15.18059439      15.17081525      15.16868547      15.16553611      15.17314613      15.18262768      15.18859116      15.18903063      15.19909060      15.21094282      15.22195927
        15.22288959      15.23572086      15.24944263      15.25851022      15.28280229      15.30388693      15.32542835      15.34981660      15.37972791      15.40516024      15.43687964      15.45370520      15.44545731      15.43734048      15.43925367      15.43431372      15.40773768      15.36306662      15.29950912      15.28204434
        15.25965323      15.24689249      15.23489666      15.21188910      15.19598657      15.19257913      15.19641157      15.20224170      15.20881210      15.22131786      15.23434042      15.24372389      15.25075981      15.25559055      15.24980297      15.24485277      15.21743269      15.17958650      15.14503539      15.11597266
        15.10789186      15.10723751      15.11448522      15.12605278      15.13328487      15.13764277      15.14567119      15.16360024      15.18192645      15.19826839      15.21017797      15.21885235      15.22068235      15.22592227      15.21700774      15.20548562      15.19829186      15.19205300      15.19489896      15.19355835
        15.19210716      15.18842402      15.19220483      15.19363159      15.18991206      15.18716039      15.19847306      15.20250143      15.20658476      15.21118637      15.20786749      15.20672575      15.20178395      15.19841106      15.19527626      15.19793545      15.20254714      15.20576249      15.21457668      15.22706916
        15.23254413      15.23077340      15.22635981      15.21255291      15.21201619      15.21515694      15.22247887      15.22233209      15.22552841      15.22819254      15.22205444      15.21892864      15.21983137      15.22183062      15.23291565      15.24468451      15.25161971      15.25781588      15.27025570      15.27612016
        15.28465652      15.29413627      15.31738663      15.32525781      15.34802468      15.37091778      15.39760914      15.42645330      15.46366360      15.49499568      15.52679154      15.54489334      15.55062012      15.54258175      15.53572472      15.53538038      15.51241220      15.47605418      15.41721560      15.37635306
        15.32580542      15.31621901      15.30402733      15.28610909      15.26179616      15.24809487      15.24872346      15.25360861      15.25825146      15.26534256      15.27640771      15.28690123      15.29736766      15.30529459      15.30573550      15.29894969      15.27984900      15.23520068      15.20044590      15.16733509
        15.14918291      15.14513126      15.14724854      15.15744591      15.16804070      15.17453175      15.18477108      15.20271643      15.22032520      15.23790783      15.25035217      15.25827193      15.26335065      15.26839250      15.26983457      15.25555236      15.24451442      15.23476201      15.23591620      15.23780994
        15.23899127      15.23690899      15.23695777      15.24328004      15.24338157      15.24130932      15.24720632      15.25487139      15.25187133      15.26127517      15.25870164      15.25711004      15.25427896      15.24932784      15.24302843      15.24282380      15.24569169      15.25256304      15.25681806      15.26353861
        15.26948969      15.27007411      15.26850375      15.25939184      15.25124911      15.25423241      15.25842506      15.26107356      15.26125250      15.26878940      15.26702566      15.26495705      15.26909976      15.27174756      15.27971511      15.29487578      15.30533504      15.31219730      15.32354534      15.33024917
        15.34279547      15.35292225      15.37388566      15.39164557      15.40737473      15.43501173      15.46271744      15.49618281      15.53599118      15.56906078      15.59335920      15.61346642      15.62260635      15.62751474      15.62537189      15.62409224      15.59953416      15.56775695      15.52891387      15.49022444
        15.38970137      15.38913431      15.37461007      15.36256350      15.33465076      15.31588442      15.30965213      15.31066669      15.30930697      15.31131823      15.31695994      15.33084673      15.34459449      15.35520382      15.36139231      15.35540584      15.34091021      15.29927507      15.24983632      15.21834939
        15.19586416      15.18842898      15.18466766      15.18777508      15.19717661      15.20946585      15.22390260      15.24153762      15.25545144      15.26933816      15.28313762      15.29206835      15.29974875      15.30410007      15.31092930      15.30146186      15.28783718      15.27731183      15.27187752      15.27580275
        15.28124023      15.28589715      15.28637053      15.29309388      15.29539300      15.29961006      15.30095923      15.30788789      15.30393394      15.30691107      15.31002791      15.30769561      15.30575247      15.30071023      15.29102118      15.28739925      15.29041493      15.29668970      15.29656272      15.29675283
        15.30056745      15.30272371      15.30218937      15.29925426      15.28770436      15.28630652      15.28935253      15.29362165      15.29559193      15.30134838      15.30543635      15.30551555      15.31093755      15.31693986      15.32338868      15.33605634      15.35090779      15.35768904      15.36770933      15.37896794
        15.39463565      15.40938548      15.42689443      15.44865546      15.46587524      15.49413890      15.52676652      15.56165271      15.59894106      15.62570005      15.64696446      15.66564131      15.67865073      15.69200430      15.70112602      15.69994847      15.67954121      15.64276579      15.62289379      15.60522135
        15.45636513      15.45165871      15.44418249      15.43206695      15.41084300      15.38692711      15.37463885      15.36914743      15.36361455      15.35884455      15.36351013      15.37566925      15.39349040      15.40792045      15.41710056      15.41054479      15.39652793      15.36372686      15.30300935      15.25759254
        15.24043861      15.23245644      15.22926097      15.22323175      15.23072399      15.24477465      15.26229241      15.27789772      15.29072337      15.29776113      15.31291086      15.32164259      15.33184584      15.33668756      15.34217821      15.33831518      15.32792982      15.31727225      15.30924728      15.31008021
        15.31775906      15.32763093      15.33368772      15.33924941      15.34596943      15.35189596      15.35484223      15.35625750      15.35667780      15.35132405      15.35755136      15.35497379      15.35374384      15.35215764      15.34193740      15.33229181      15.33359329      15.33455646      15.33282026      15.32786845
        15.32881474      15.33184836      15.33197523      15.33131015      15.32347710      15.31458269      15.31741840      15.32316035      15.32790532      15.33152319      15.33842160      15.34088502      15.34671262      15.35530481      15.36299166      15.37357764      15.38817966      15.39464214      15.40363727      15.41996671
        15.43748763      15.45821365      15.47497651      15.49642169      15.51841616      15.54695863      15.58112494      15.61649886      15.64512977      15.66851786      15.68877026      15.70547987      15.72028803      15.73856099      15.75457507      15.76341835      15.75499839      15.72582684      15.70452708      15.70042353
        15.52542994      15.51315873      15.50620558      15.49353327      15.48004541      15.46011474      15.44120128      15.43001164      15.41783035      15.40926850      15.41179904      15.42508508      15.44219625      15.45871208      15.46452344      15.46076075      15.44331084      15.41305663      15.34318187      15.27396919
        15.26947229      15.27385994      15.27632160      15.27184097      15.27194124      15.28516736      15.30209026      15.31495404      15.32456804      15.32934403      15.33926070      15.35094379      15.36092126      15.36755562      15.36750179      15.36801023      15.36151200      15.35429550      15.34585384      15.34453522
        15.35036650      15.36337739      15.37205869      15.38139857      15.39116666      15.39766205      15.40240160      15.40185630      15.40208254      15.39618840      15.39542770      15.39708229      15.39566294      15.39778482      15.39128356      15.37721147      15.36921640      15.36611250      15.36139412      15.35419846
        15.35528890      15.35930041      15.35922204      15.35910985      15.35732355      15.34701781      15.34585806      15.35314569      15.35883187      15.36309414      15.36799669      15.37317011      15.38000493      15.38936233      15.39793907      15.40664338      15.41607373      15.42605142      15.43604700      15.45474429
        15.47336476      15.49513698      15.51472501      15.53808816      15.56140740      15.59170144      15.62529791      15.65849451      15.67963746      15.69934972      15.71724525      15.73447610      15.75052411      15.77151084      15.79077629      15.80542790      15.80804637      15.79919182      15.78291161      15.77293490
        15.58964631      15.57939958      15.56952947      15.55735017      15.54227342      15.52861922      15.50840583      15.49095470      15.47502262      15.46340481      15.46135995      15.47540315      15.48944151      15.50253078      15.50592732      15.50297866      15.48548163      15.44682006      15.35472309      15.23300556
        15.28013729      15.31050940      15.32482374      15.32914243      15.32422809      15.32933686      15.34232731      15.35067963      15.35685033      15.36361574      15.36855678      15.38094773      15.38905821      15.39526154      15.39418783      15.39442324      15.39199315      15.38855106      15.38177230      15.37959206
        15.38518943      15.39558181      15.40520880      15.41585103      15.42868593      15.43787828      15.44408785      15.44198707      15.43953033      15.43459712      15.42911694      15.43166742      15.43205352      15.43175317      15.43230940      15.41877687      15.40165971      15.39041044      15.38003574      15.36572171
        15.37844396      15.38446795      15.38575859      15.38346596      15.38579729      15.38183183      15.37832121      15.38268212      15.38947275      15.39316066      15.39925393      15.40475101      15.41222932      15.42004910      15.43125361      15.43775397      15.44328937      15.45284610      15.46568575      15.48459426
        15.50574148      15.52464876      15.54726325      15.57077577      15.59655201      15.62826178      15.65954696      15.68472159      15.70384800      15.71911453      15.73735732      15.75392974      15.76967729      15.79010723      15.81224925      15.82746173      15.83756383      15.84218448      15.84001964      15.82838103
        15.64900063      15.64627817      15.64212232      15.62857381      15.60947378      15.59211640      15.57501907      15.55316905      15.53845672      15.52247296      15.51549511      15.52361466      15.53648886      15.54093775      15.54387849      15.53589621      15.52491866      15.48068492      15.36275932      15.01388950
        15.28152814      15.34769903      15.37743674      15.38820294      15.38239962      15.37538017      15.38013473      15.38668289      15.39071663      15.39708712      15.40025690      15.40873462      15.41588017      15.41923829      15.41959601      15.41926881      15.42049009      15.42099610      15.41735424      15.41506053
        15.41877047      15.42568718      15.43658682      15.44795264      15.46110767      15.47242563      15.47859643      15.47743063      15.47230040      15.46704559      15.46095777      15.46134791      15.46365634      15.46213237      15.46294688      15.45422498      15.43406773      15.41475590      15.39309155      15.34771837
        15.39749392      15.41032004      15.41215510      15.40878539      15.40921874      15.41265477      15.41113055      15.41367114      15.41893227      15.42190289      15.42926845      15.43714456      15.44352444      15.45135112      15.46055424      15.46745696      15.47074856      15.47977888      15.49465652      15.51409784
        15.53324410      15.55173615      15.57439714      15.59842510      15.62436799      15.65476692      15.68271235      15.70350018      15.72075636      15.73528660      15.75181683      15.76568320      15.78039382      15.80148450      15.82385614      15.84003250      15.85128188      15.86137551      15.87046136      15.86673414
        15.71361512      15.71680884      15.71640377      15.70716824      15.68719470      15.66313482      15.64065780      15.62209434      15.60662674      15.59173402      15.57679073      15.57248100      15.58159995      15.58289181      15.58320621      15.57528992      15.56432569      15.54099911      15.48752690      15.38208279
        15.39062395      15.41970216      15.43722336      15.44659993      15.44144832      15.42729853      15.41774877      15.42191325      15.42325687      15.42788367      15.43083665      15.43405184      15.43927198      15.44142260      15.44132883      15.44379148      15.44634381      15.44959560      15.45029520      15.44986436
        15.45194207      15.45643337      15.46510164      15.47802970      15.49051991      15.50232284      15.50870409      15.50911790      15.50280395      15.49770675      15.49268234      15.49032505      15.49114326      15.48977338      15.48608283      15.48233100      15.46621483      15.44722468      15.43154538      15.42086587
        15.43308191      15.44013737      15.43816852      15.43497711      15.43329649      15.43850186      15.44076904      15.44206796      15.44474915      15.44927402      15.45618398      15.46702554      15.47322530      15.47963462      15.48574124      15.49434184      15.49803385      15.50633148      15.52255362      15.54101665
        15.55853750      15.57703585      15.59836285      15.62093086      15.64608500      15.67400208      15.69962133      15.71698854      15.73147340      15.74692710      15.76226278      15.77370101      15.78700338      15.80666992      15.82891304      15.84711893      15.85805982      15.86674655      15.87994438      15.88242064
        15.79804848      15.79255151      15.79169306      15.78439425      15.76767642      15.74149154      15.71358547      15.69303955      15.67873726      15.66306808      15.64468438      15.62566301      15.62720074      15.62752661      15.62487744      15.62044358      15.60636574      15.59143375      15.56789136      15.53119831
        15.50296626      15.49960301      15.50515931      15.50518240      15.49603493      15.47891484      15.46255744      15.45571470      15.45546142      15.45499970      15.45691200      15.45599783      15.45888298      15.46045891      15.46154460      15.46539267      15.46999307      15.47291331      15.47819117      15.47928649
        15.48328168      15.48557782      15.49271903      15.50562519      15.51838258      15.52723390      15.53549395      15.53603672      15.53183452      15.52686973      15.52365408      15.51950586      15.51738968      15.51433342      15.50974051      15.50561858      15.49641695      15.47987249      15.46800701      15.45974260
        15.46131459      15.46475215      15.46350577      15.46038221      15.45849222      15.46119577      15.46629562      15.46656022      15.46796875      15.47462336      15.48099367      15.49117978      15.49875388      15.50356583      15.50895849      15.51596452      15.52201516      15.53158155      15.54880360      15.56617757
        15.58329362      15.59881388      15.61906259      15.64020619      15.66234618      15.68736526      15.71061775      15.72623047      15.73932970      15.75399343      15.76863313      15.77881147      15.79009628      15.80969886      15.83092585      15.84949214      15.86133223      15.86801671      15.87805620      15.88477563
        15.89562638      15.87503047      15.86606345      15.85659787      15.83777739      15.81542266      15.78803578      15.76262745      15.74854594      15.73100230      15.71058047      15.68538782      15.67169840      15.67270802      15.66772180      15.66495247      15.65226396      15.63734381      15.62411458      15.61051971
        15.59371454      15.57997451      15.57340165      15.56145364      15.54167357      15.52368466      15.50734178      15.49218773      15.48607520      15.48036616      15.47821944      15.47691008      15.47608490      15.47712018      15.47967196      15.48415847      15.49075162      15.49416369      15.49960660      15.50323108
        15.50829109      15.51270610      15.51901448      15.53001057      15.54068504      15.54860531      15.55635617      15.55913389      15.55678787      15.55395032      15.55097248      15.54683161      15.54179753      15.53690378      15.53203135      15.52708444      15.52274684      15.51131192      15.49801970      15.48958570
        15.48486436      15.48637669      15.48742444      15.48582280      15.48315368      15.48483513      15.48845982      15.49020286      15.48959854      15.49694382      15.50375477      15.51159152      15.51897499      15.52402844      15.52880614      15.53504276      15.54320827      15.55456398      15.57074109      15.58834406
        15.60505115      15.62020231      15.63784704      15.65628466      15.67435035      15.69575716      15.71596390      15.73179944      15.74397169      15.75646766      15.77145204      15.78260663      15.79254335      15.81071685      15.83011647      15.84726578      15.86078111      15.86759491      15.87377826      15.88030955
        15.98143904      15.95833413      15.93184643      15.92237385      15.90012901      15.88067848      15.85612541      15.82919110      15.80694056      15.78837842      15.76501472      15.74004899      15.71554466      15.71545276      15.70952605      15.70388049      15.69449823      15.68127605      15.66954482      15.66659093
        15.65678648      15.64522717      15.63209877      15.61329788      15.58486147      15.56077952      15.54424023      15.52789756      15.51587654      15.50634804      15.49828126      15.49584282      15.49370620      15.49380660      15.49701283      15.50151311      15.50771699      15.51259823      15.51762421      15.52348031
        15.52762473      15.53416473      15.54140899      15.55077021      15.55899359      15.56584273      15.57132823      15.57644814      15.57690807      15.57542696      15.57281696      15.56747346      15.56299237      15.55794061      15.55265975      15.54710104      15.54419643      15.53847593      15.52557975      15.51500564
        15.50787391      15.50713528      15.50977886      15.51034604      15.50821332      15.50728690      15.50899459      15.51209331      15.51320604      15.51756245      15.52585022      15.52934459      15.53645556      15.54179380      15.54703385      15.55281103      15.56252890      15.57427052      15.59136355      15.60801660
        15.62393115      15.63850910      15.65314516      15.66916731      15.68571418      15.70214501      15.71842641      15.73425908      15.74650276      15.75763920      15.77230869      15.78438594      15.79367967      15.80945576      15.82796722      15.84369819      15.85651782      15.86491663      15.86905212      15.87306664
        16.06564478      16.04612741      16.00456828      15.98160589      15.96220252      15.93543565      15.91372145      15.88556696      15.85576695      15.83221360      15.81068705      15.78435726      15.75801632      15.74834816      15.74487770      15.73622564      15.72815806      15.71772203      15.70905858      15.70534279
        15.69985775      15.68648103      15.67201343      15.64998161      15.62230960      15.59272376      15.57438704      15.55681366      15.54346577      15.53269758      15.52154574      15.51389541      15.51236649      15.51137798      15.51441965      15.51893994      15.52322482      15.52882421      15.53425200      15.54029407
        15.54556054      15.55192109      15.55943781      15.56758741      15.57399239      15.57923818      15.58422121      15.58898255      15.59184299      15.59101341      15.58879897      15.58295113      15.57916531      15.57574124      15.57095944      15.56527261      15.56055263      15.55772242      15.54899920      15.53808950
        15.53090070      15.52864488      15.53050227      15.53242806      15.53200506      15.52935916      15.53048224      15.53204094      15.53637657      15.53897738      15.54645435      15.54815614      15.55324809      15.55872577      15.56447393      15.57122743      15.58097617      15.59401179      15.61001299      15.62543067
        15.64005268      15.65399979      15.66679042      15.68090799      15.69508903      15.70825636      15.72079282      15.73486409      15.74707283      15.75767039      15.77165150      15.78508464      15.79440273      15.80691234      15.82347373      15.83920072      15.85069099      15.85925393      15.86329068      15.86437237
        16.15105822      16.13517470      16.08827738      16.04366032      16.01908089      15.98788149      15.95871619      15.93171783      15.89828809      15.86874445      15.84670007      15.82060317      15.79297022      15.77593688      15.77040750      15.76256554      15.75288106      15.74456679      15.73648052      15.72835355
        15.72172500      15.70856092      15.69347340      15.67363495      15.64740800      15.61874876      15.59702853      15.57939068      15.56530103      15.55593303      15.54534133      15.53511675      15.53045840      15.53049116      15.53238603      15.53717184      15.53879570      15.54414840      15.54920354      15.55527298
        15.56191441      15.56799522      15.57391214      15.58145716      15.58646587      15.59116581      15.59536223      15.59907064      15.60240421      15.60234837      15.59916600      15.59496444      15.59035206      15.58908327      15.58536278      15.58096653      15.57457781      15.57184036      15.56593277      15.55831094
        15.55254299      15.55016741      15.55013322      15.55152299      15.55200892      15.55037614      15.55143226      15.55218194      15.55668137      15.55993843      15.56371760      15.56716897      15.56919439      15.57539719      15.58190892      15.59020600      15.59933538      15.61330952      15.62722041      15.64267897
        15.65527768      15.66721102      15.67903979      15.69143571      15.70324449      15.71395673      15.72327255      15.73476260      15.74688574      15.75736906      15.77085512      15.78457925      15.79377930      15.80342220      15.81804711      15.83377113      15.84485726      15.85168066      15.85612325      15.85566401
        16.23133518      16.21010676      16.17023418      16.11236286      16.07261792      16.03901186      15.99510435      15.96501274      15.93543357      15.90300471      15.87746145      15.84969256      15.82038920      15.80004984      15.78864087      15.77940759      15.76870348      15.75903397      15.75115465      15.74079851
        15.73050697      15.71739758      15.70048286      15.68425643      15.66256224      15.63610685      15.61274162      15.59551552      15.58227193      15.57375310      15.56602718      15.55724000      15.54944080      15.54865977      15.55015909      15.55357812      15.55570578      15.55862137      15.56351131      15.56849739