# File generated by Flopy version 3.5.0 on 01/24/2024 at 16:08:37.
BEGIN options
  BUDGET  FILEOUT  Reference.cbb
  HEAD  FILEOUT  Reference.hds
END options

BEGIN period  1
  SAVE  HEAD  ALL
  SAVE  BUDGET  ALL
  PRINT  HEAD  LAST
END period  1

