# File generated by Flopy version 3.5.0 on 01/23/2024 at 11:34:46.
BEGIN options
END options

BEGIN dimensions
  MAXBOUND  5000
END dimensions

BEGIN period  1
  1 1 3.27035212E-01
  1 2 2.81473172E-01
  1 3 3.34770547E-01
  1 4 3.46205263E-01
  1 5 3.02424568E-01
  1 6 3.15303425E-01
  1 7 4.02389263E-01
  1 8 4.08669256E-01
  1 9 3.89044638E-01
  1 10 4.30969004E-01
  1 11 4.03980647E-01
  1 12 2.96973303E-01
  1 13 2.41702950E-01
  1 14 2.68148065E-01
  1 15 2.91736625E-01
  1 16 3.41872380E-01
  1 17 3.73931611E-01
  1 18 4.22096113E-01
  1 19 4.87396557E-01
  1 20 5.89251621E-01
  1 21 6.06339333E-01
  1 22 6.24790471E-01
  1 23 5.73917961E-01
  1 24 5.84611862E-01
  1 25 5.97526175E-01
  1 26 6.63600894E-01
  1 27 6.39903848E-01
  1 28 7.27168020E-01
  1 29 7.62539496E-01
  1 30 7.63153712E-01
  1 31 7.07145981E-01
  1 32 7.17905073E-01
  1 33 6.31579210E-01
  1 34 5.92748032E-01
  1 35 6.83459081E-01
  1 36 8.01034132E-01
  1 37 8.64424841E-01
  1 38 8.66991564E-01
  1 39 8.45493726E-01
  1 40 7.48342882E-01
  1 41 8.03831593E-01
  1 42 8.57725455E-01
  1 43 9.04238144E-01
  1 44 7.99411454E-01
  1 45 7.86759388E-01
  1 46 8.02943752E-01
  1 47 9.54072953E-01
  1 48 9.67965623E-01
  1 49 9.39682168E-01
  1 50 8.50271501E-01
  1 51 7.64872067E-01
  1 52 6.36800964E-01
  1 53 6.74335232E-01
  1 54 7.72908092E-01
  1 55 7.49859012E-01
  1 56 6.92939744E-01
  1 57 7.33184922E-01
  1 58 7.96523308E-01
  1 59 8.06632016E-01
  1 60 8.61913594E-01
  1 61 8.71442754E-01
  1 62 8.76828735E-01
  1 63 9.30964930E-01
  1 64 1.04923668E+00
  1 65 1.04998812E+00
  1 66 9.55848243E-01
  1 67 8.01235656E-01
  1 68 7.62895870E-01
  1 69 7.96089861E-01
  1 70 8.44690805E-01
  1 71 8.27563651E-01
  1 72 8.61608268E-01
  1 73 7.79896283E-01
  1 74 6.66973872E-01
  1 75 6.07660701E-01
  1 76 6.67158267E-01
  1 77 6.05236565E-01
  1 78 5.91025649E-01
  1 79 6.10247133E-01
  1 80 6.60249096E-01
  1 81 6.55660382E-01
  1 82 6.86433625E-01
  1 83 6.34842749E-01
  1 84 5.65166133E-01
  1 85 5.71692247E-01
  1 86 6.09375377E-01
  1 87 6.60368173E-01
  1 88 6.98973623E-01
  1 89 8.11817716E-01
  1 90 8.83778647E-01
  1 91 9.92598366E-01
  1 92 9.38110475E-01
  1 93 8.98684363E-01
  1 94 8.06202189E-01
  1 95 7.95330107E-01
  1 96 7.47635214E-01
  1 97 8.73064949E-01
  1 98 9.35469599E-01
  1 99 9.61821260E-01
  1 100 9.54689948E-01
  1 101 4.39344488E-01
  1 102 4.29103000E-01
  1 103 4.51021571E-01
  1 104 4.57619604E-01
  1 105 4.28071956E-01
  1 106 4.31600249E-01
  1 107 4.85269413E-01
  1 108 5.03518868E-01
  1 109 3.93786184E-01
  1 110 3.07664616E-01
  1 111 2.38345276E-01
  1 112 3.22909510E-01
  1 113 3.51437129E-01
  1 114 4.29789674E-01
  1 115 4.74281799E-01
  1 116 5.92649401E-01
  1 117 5.69734580E-01
  1 118 6.58649716E-01
  1 119 7.29918764E-01
  1 120 7.23018419E-01
  1 121 5.73396724E-01
  1 122 5.55095591E-01
  1 123 5.93864014E-01
  1 124 6.61917561E-01
  1 125 7.48087263E-01
  1 126 7.67801900E-01
  1 127 7.06229878E-01
  1 128 6.40036462E-01
  1 129 6.61579183E-01
  1 130 6.45018300E-01
  1 131 6.86614363E-01
  1 132 7.25308366E-01
  1 133 8.14984561E-01
  1 134 8.51454467E-01
  1 135 8.89819563E-01
  1 136 8.51891568E-01
  1 137 8.69708040E-01
  1 138 8.46520007E-01
  1 139 8.22404670E-01
  1 140 8.06679606E-01
  1 141 8.48344363E-01
  1 142 8.09539291E-01
  1 143 8.32085945E-01
  1 144 9.15441060E-01
  1 145 9.91400986E-01
  1 146 9.61567060E-01
  1 147 9.31581666E-01
  1 148 7.97456742E-01
  1 149 6.73043055E-01
  1 150 6.67214311E-01
  1 151 7.62976720E-01
  1 152 7.53797179E-01
  1 153 7.18234922E-01
  1 154 7.34236359E-01
  1 155 7.77775190E-01
  1 156 8.18121672E-01
  1 157 8.28701912E-01
  1 158 8.82416524E-01
  1 159 9.17639115E-01
  1 160 9.76539431E-01
  1 161 9.59218327E-01
  1 162 1.02500224E+00
  1 163 9.50753244E-01
  1 164 8.26988536E-01
  1 165 6.83235386E-01
  1 166 7.51584313E-01
  1 167 7.56405695E-01
  1 168 8.09753181E-01
  1 169 8.17181646E-01
  1 170 7.79950513E-01
  1 171 6.33497476E-01
  1 172 6.19130627E-01
  1 173 6.54543801E-01
  1 174 6.16451225E-01
  1 175 5.67683997E-01
  1 176 5.76280346E-01
  1 177 6.52779862E-01
  1 178 6.66322407E-01
  1 179 6.84309758E-01
  1 180 6.32462378E-01
  1 181 6.30587710E-01
  1 182 5.42152163E-01
  1 183 5.25429047E-01
  1 184 5.66795805E-01
  1 185 7.07166573E-01
  1 186 7.43818287E-01
  1 187 8.31363726E-01
  1 188 8.98031085E-01
  1 189 9.13374736E-01
  1 190 8.52060597E-01
  1 191 8.44623463E-01
  1 192 7.88250656E-01
  1 193 7.62205789E-01
  1 194 8.21723831E-01
  1 195 8.97605385E-01
  1 196 8.70512990E-01
  1 197 8.66188281E-01
  1 198 9.03273805E-01
  1 199 9.47026477E-01
  1 200 9.73592392E-01
  1 201 3.95560221E-01
  1 202 4.47729341E-01
  1 203 4.37101893E-01
  1 204 4.63840452E-01
  1 205 4.57376977E-01
  1 206 5.00104792E-01
  1 207 4.02275534E-01
  1 208 3.53899119E-01
  1 209 3.82734969E-01
  1 210 4.62172309E-01
  1 211 4.66673465E-01
  1 212 5.49491372E-01
  1 213 6.18173294E-01
  1 214 6.31103538E-01
  1 215 6.56657219E-01
  1 216 7.25857752E-01
  1 217 6.63327377E-01
  1 218 5.37511949E-01
  1 219 5.03007640E-01
  1 220 5.69647091E-01
  1 221 6.41769380E-01
  1 222 7.03538672E-01
  1 223 7.40637093E-01
  1 224 7.36203879E-01
  1 225 6.91319059E-01
  1 226 6.21396483E-01
  1 227 6.57554369E-01
  1 228 7.36566970E-01
  1 229 7.88480767E-01
  1 230 7.69827774E-01
  1 231 8.57466067E-01
  1 232 8.76157174E-01
  1 233 9.05200164E-01
  1 234 8.99522475E-01
  1 235 9.38194428E-01
  1 236 8.46868594E-01
  1 237 8.67880781E-01
  1 238 8.70496184E-01
  1 239 8.82379655E-01
  1 240 8.74433261E-01
  1 241 9.94352521E-01
  1 242 1.05111038E+00
  1 243 1.03369174E+00
  1 244 9.58696079E-01
  1 245 8.51417183E-01
  1 246 7.86802303E-01
  1 247 7.51565472E-01
  1 248 7.81548396E-01
  1 249 7.72785670E-01
  1 250 8.22012481E-01
  1 251 7.77932169E-01
  1 252 8.26472279E-01
  1 253 8.65663819E-01
  1 254 9.50399199E-01
  1 255 9.48489109E-01
  1 256 1.03068883E+00
  1 257 1.01311462E+00
  1 258 1.01374760E+00
  1 259 1.02657702E+00
  1 260 1.00016617E+00
  1 261 7.90140684E-01
  1 262 6.57253400E-01
  1 263 6.84919819E-01
  1 264 7.48194054E-01
  1 265 7.83272963E-01
  1 266 8.17145826E-01
  1 267 8.09156948E-01
  1 268 7.49901374E-01
  1 269 7.25874354E-01
  1 270 7.20593336E-01
  1 271 7.25260961E-01
  1 272 6.78954796E-01
  1 273 6.25101312E-01
  1 274 6.21399573E-01
  1 275 6.89173559E-01
  1 276 6.74542036E-01
  1 277 6.56937473E-01
  1 278 6.23318597E-01
  1 279 5.66223196E-01
  1 280 4.96506508E-01
  1 281 6.42116186E-01
  1 282 7.58305814E-01
  1 283 8.04831125E-01
  1 284 8.18553091E-01
  1 285 9.54705675E-01
  1 286 9.59818590E-01
  1 287 9.50830577E-01
  1 288 9.06613842E-01
  1 289 9.11526424E-01
  1 290 8.79533276E-01
  1 291 8.89742849E-01
  1 292 8.86004167E-01
  1 293 9.05223407E-01
  1 294 9.22093368E-01
  1 295 8.94547660E-01
  1 296 9.31122688E-01
  1 297 9.53000920E-01
  1 298 9.75248816E-01
  1 299 9.45495437E-01
  1 300 1.03072052E+00
  1 301 4.65043656E-01
  1 302 5.49803749E-01
  1 303 5.82975990E-01
  1 304 5.39590151E-01
  1 305 4.46918650E-01
  1 306 5.40585513E-01
  1 307 5.67733103E-01
  1 308 5.64628696E-01
  1 309 5.57020613E-01
  1 310 6.46001028E-01
  1 311 6.73384417E-01
  1 312 7.06991938E-01
  1 313 6.92236275E-01
  1 314 6.39545268E-01
  1 315 5.70863945E-01
  1 316 5.10545542E-01
  1 317 5.67397553E-01
  1 318 6.72005849E-01
  1 319 7.79566072E-01
  1 320 7.51687777E-01
  1 321 7.91002054E-01
  1 322 7.19346121E-01
  1 323 6.83182083E-01
  1 324 6.78561110E-01
  1 325 7.95249386E-01
  1 326 7.25542232E-01
  1 327 7.25063471E-01
  1 328 7.99283308E-01
  1 329 9.14301251E-01
  1 330 9.14186240E-01
  1 331 9.59072491E-01
  1 332 9.85368792E-01
  1 333 9.74471481E-01
  1 334 9.50706910E-01
  1 335 9.35435566E-01
  1 336 9.64014688E-01
  1 337 9.91605804E-01
  1 338 1.02029768E+00
  1 339 1.01644517E+00
  1 340 1.05388499E+00
  1 341 9.91970199E-01
  1 342 9.15586600E-01
  1 343 8.62072467E-01
  1 344 8.63421010E-01
  1 345 8.36845093E-01
  1 346 9.08095858E-01
  1 347 9.29496042E-01
  1 348 8.79822575E-01
  1 349 8.49072484E-01
  1 350 9.61865949E-01
  1 351 1.00569817E+00
  1 352 1.02746688E+00
  1 353 1.02171586E+00
  1 354 1.03638363E+00
  1 355 9.97517044E-01
  1 356 1.00862215E+00
  1 357 9.19051539E-01
  1 358 7.94953740E-01
  1 359 6.60504432E-01
  1 360 6.32429093E-01
  1 361 6.71468212E-01
  1 362 7.86288139E-01
  1 363 8.58231955E-01
  1 364 8.58102717E-01
  1 365 8.38889376E-01
  1 366 7.78181745E-01
  1 367 8.00523152E-01
  1 368 8.35521450E-01
  1 369 8.20392174E-01
  1 370 6.20993206E-01
  1 371 5.91215549E-01
  1 372 6.08101609E-01
  1 373 6.53109230E-01
  1 374 5.89164389E-01
  1 375 6.20496808E-01
  1 376 5.50184237E-01
  1 377 5.69923119E-01
  1 378 6.64833289E-01
  1 379 8.36469245E-01
  1 380 8.94268224E-01
  1 381 9.21489247E-01
  1 382 9.36981160E-01
  1 383 9.63926763E-01
  1 384 1.00254744E+00
  1 385 9.93059417E-01
  1 386 9.92690322E-01
  1 387 9.28046905E-01
  1 388 8.71379608E-01
  1 389 8.49881446E-01
  1 390 9.87975514E-01
  1 391 1.00196725E+00
  1 392 9.40794971E-01
  1 393 9.04249650E-01
  1 394 9.78876968E-01
  1 395 9.50449553E-01
  1 396 9.61871810E-01
  1 397 1.00611583E+00
  1 398 1.05386245E+00
  1 399 1.04537627E+00
  1 400 1.10356482E+00
  1 401 5.53149874E-01
  1 402 5.19358469E-01
  1 403 4.99431975E-01
  1 404 4.90205019E-01
  1 405 5.17630564E-01
  1 406 5.43196184E-01
  1 407 5.98334691E-01
  1 408 6.27418570E-01
  1 409 6.81410716E-01
  1 410 6.54924233E-01
  1 411 6.85324627E-01
  1 412 6.24568684E-01
  1 413 5.46075864E-01
  1 414 5.21004029E-01
  1 415 6.88851846E-01
  1 416 7.59434862E-01
  1 417 7.66930235E-01
  1 418 7.52390964E-01
  1 419 7.45115941E-01
  1 420 6.57849506E-01
  1 421 6.63556816E-01
  1 422 7.03757481E-01
  1 423 7.17848710E-01
  1 424 6.85441835E-01
  1 425 7.20935570E-01
  1 426 7.77452312E-01
  1 427 8.76445329E-01
  1 428 9.48568070E-01
  1 429 9.99297315E-01
  1 430 9.82827708E-01
  1 431 9.24535416E-01
  1 432 8.90548314E-01
  1 433 9.69040579E-01
  1 434 1.03530183E+00
  1 435 9.53974434E-01
  1 436 9.08304880E-01
  1 437 9.26831909E-01
  1 438 9.44087685E-01
  1 439 8.86704544E-01
  1 440 9.62257591E-01
  1 441 9.61597061E-01
  1 442 9.49360547E-01
  1 443 9.01568956E-01
  1 444 9.78627700E-01
  1 445 9.59010243E-01
  1 446 9.84564000E-01
  1 447 9.37795933E-01
  1 448 9.37583082E-01
  1 449 9.21110969E-01
  1 450 9.73928851E-01
  1 451 9.90741161E-01
  1 452 9.82148289E-01
  1 453 9.06792574E-01
  1 454 7.93222516E-01
  1 455 7.61058007E-01
  1 456 7.12561993E-01
  1 457 6.80261205E-01
  1 458 6.73711489E-01
  1 459 7.97529127E-01
  1 460 7.98779371E-01
  1 461 8.28117022E-01
  1 462 8.39715415E-01
  1 463 8.77407682E-01
  1 464 8.14846603E-01
  1 465 8.30128529E-01
  1 466 7.68774968E-01
  1 467 6.96599324E-01
  1 468 6.30156261E-01
  1 469 6.15779160E-01
  1 470 5.46670365E-01
  1 471 5.37455711E-01
  1 472 5.83200474E-01
  1 473 6.44385864E-01
  1 474 6.89525716E-01
  1 475 7.56785264E-01
  1 476 8.45834524E-01
  1 477 9.45609813E-01
  1 478 9.83363822E-01
  1 479 9.76647843E-01
  1 480 1.02556139E+00
  1 481 1.06155423E+00
  1 482 1.00163165E+00
  1 483 9.40219238E-01
  1 484 9.62660742E-01
  1 485 9.22185205E-01
  1 486 9.12520475E-01
  1 487 9.55209775E-01
  1 488 1.01071133E+00
  1 489 9.57890195E-01
  1 490 1.01172865E+00
  1 491 1.01056638E+00
  1 492 9.83365288E-01
  1 493 9.04455883E-01
  1 494 9.79693451E-01
  1 495 1.01952501E+00
  1 496 1.08694745E+00
  1 497 1.06907163E+00
  1 498 1.10494253E+00
  1 499 1.12226646E+00
  1 500 1.12572680E+00
  1 501 4.53740066E-01
  1 502 4.82282949E-01
  1 503 4.91799066E-01
  1 504 4.86818522E-01
  1 505 6.21933549E-01
  1 506 7.54145780E-01
  1 507 7.79353227E-01
  1 508 6.99068035E-01
  1 509 6.50675078E-01
  1 510 5.65608399E-01
  1 511 6.26338185E-01
  1 512 6.99405145E-01
  1 513 7.50827926E-01
  1 514 6.82513029E-01
  1 515 7.17684430E-01
  1 516 7.06952574E-01
  1 517 7.34409658E-01
  1 518 7.03533600E-01
  1 519 7.08476225E-01
  1 520 6.78576679E-01
  1 521 6.84775000E-01
  1 522 6.88758129E-01
  1 523 7.62696243E-01
  1 524 8.63780392E-01
  1 525 8.36763401E-01
  1 526 8.17823597E-01
  1 527 8.57168296E-01
  1 528 9.38545991E-01
  1 529 8.83034577E-01
  1 530 9.25539906E-01
  1 531 8.93697539E-01
  1 532 8.65496711E-01
  1 533 8.20167683E-01
  1 534 9.12429528E-01
  1 535 8.80197702E-01
  1 536 8.85189596E-01
  1 537 9.16543082E-01
  1 538 9.99803085E-01
  1 539 9.90356413E-01
  1 540 9.71816228E-01
  1 541 9.45981746E-01
  1 542 9.50272701E-01
  1 543 9.28510405E-01
  1 544 8.73605252E-01
  1 545 8.92218189E-01
  1 546 9.23646620E-01
  1 547 8.79430840E-01
  1 548 8.24809375E-01
  1 549 8.97478003E-01
  1 550 9.01833382E-01
  1 551 8.23739512E-01
  1 552 7.53222613E-01
  1 553 7.34333765E-01
  1 554 6.90813682E-01
  1 555 7.58894384E-01
  1 556 8.27003571E-01
  1 557 8.18440157E-01
  1 558 7.32930585E-01
  1 559 7.43146866E-01
  1 560 7.48988824E-01
  1 561 8.10115644E-01
  1 562 8.06214599E-01
  1 563 7.91751339E-01
  1 564 6.87318302E-01
  1 565 6.18623270E-01
  1 566 5.25915371E-01
  1 567 5.72630489E-01
  1 568 6.12273351E-01
  1 569 6.04901372E-01
  1 570 5.85375176E-01
  1 571 6.88196204E-01
  1 572 8.04056214E-01
  1 573 8.86343490E-01
  1 574 9.72842184E-01
  1 575 9.47440765E-01
  1 576 9.42367142E-01
  1 577 9.93405217E-01
  1 578 1.10811141E+00
  1 579 1.02960263E+00
  1 580 9.88851124E-01
  1 581 8.97329185E-01
  1 582 8.77818034E-01
  1 583 8.46225399E-01
  1 584 9.66524740E-01
  1 585 9.92962362E-01
  1 586 9.87470431E-01
  1 587 8.98330682E-01
  1 588 8.91766865E-01
  1 589 9.36586951E-01
  1 590 9.82188857E-01
  1 591 9.41493217E-01
  1 592 9.10401044E-01
  1 593 9.45843063E-01
  1 594 9.66912609E-01
  1 595 1.05840801E+00
  1 596 1.13900504E+00
  1 597 1.13776902E+00
  1 598 1.06374670E+00
  1 599 1.14258437E+00
  1 600 1.18390539E+00
  1 601 5.32783109E-01
  1 602 5.78082150E-01
  1 603 7.30524717E-01
  1 604 7.54810236E-01
  1 605 7.88925535E-01
  1 606 6.99540858E-01
  1 607 6.54711096E-01
  1 608 6.05829036E-01
  1 609 6.42288928E-01
  1 610 6.95514263E-01
  1 611 7.62647953E-01
  1 612 7.20690112E-01
  1 613 6.42028275E-01
  1 614 6.81727166E-01
  1 615 7.36155524E-01
  1 616 7.55659279E-01
  1 617 7.28737407E-01
  1 618 7.21054208E-01
  1 619 6.50618533E-01
  1 620 6.96392629E-01
  1 621 7.42460881E-01
  1 622 7.38543129E-01
  1 623 6.84659079E-01
  1 624 7.52847194E-01
  1 625 7.88624973E-01
  1 626 8.30218281E-01
  1 627 8.66503387E-01
  1 628 9.07450909E-01
  1 629 8.44825619E-01
  1 630 8.05236896E-01
  1 631 7.95322538E-01
  1 632 8.83534297E-01
  1 633 9.38383760E-01
  1 634 9.52043037E-01
  1 635 9.11484220E-01
  1 636 9.33261484E-01
  1 637 8.98073454E-01
  1 638 8.81738548E-01
  1 639 8.98385278E-01
  1 640 8.96819426E-01
  1 641 8.24405718E-01
  1 642 8.31624737E-01
  1 643 8.90385755E-01
  1 644 8.52331121E-01
  1 645 8.51798592E-01
  1 646 8.85890687E-01
  1 647 8.93765564E-01
  1 648 7.66376421E-01
  1 649 7.70773913E-01
  1 650 7.84028490E-01
  1 651 8.55228860E-01
  1 652 8.14107216E-01
  1 653 8.33471062E-01
  1 654 7.80952519E-01
  1 655 7.72253861E-01
  1 656 6.80150656E-01
  1 657 7.09767302E-01
  1 658 7.73727685E-01
  1 659 8.11542192E-01
  1 660 7.61150294E-01
  1 661 7.31587706E-01
  1 662 6.75373924E-01
  1 663 5.76886227E-01
  1 664 5.96858016E-01
  1 665 6.22570032E-01
  1 666 6.23828285E-01
  1 667 6.14381862E-01
  1 668 7.47526943E-01
  1 669 7.96390430E-01
  1 670 8.53729126E-01
  1 671 8.86764177E-01
  1 672 9.66918712E-01
  1 673 9.72316051E-01
  1 674 1.02768974E+00
  1 675 1.04488800E+00
  1 676 1.07557363E+00
  1 677 1.02835133E+00
  1 678 9.48771141E-01
  1 679 8.67475568E-01
  1 680 8.95924887E-01
  1 681 9.23695972E-01
  1 682 9.43140562E-01
  1 683 9.27019021E-01
  1 684 8.88704765E-01
  1 685 8.55762192E-01
  1 686 9.29426435E-01
  1 687 9.66051093E-01
  1 688 9.15866306E-01
  1 689 8.92428002E-01
  1 690 9.23466623E-01
  1 691 9.25773311E-01
  1 692 9.61516212E-01
  1 693 1.09072135E+00
  1 694 1.13201058E+00
  1 695 1.12686711E+00
  1 696 1.11021488E+00
  1 697 1.16846019E+00
  1 698 1.15699047E+00
  1 699 1.19812639E+00
  1 700 1.15372812E+00
  1 701 8.15311678E-01
  1 702 8.29635052E-01
  1 703 7.52188396E-01
  1 704 7.04335774E-01
  1 705 7.46353787E-01
  1 706 7.65013503E-01
  1 707 8.03908571E-01
  1 708 8.26942444E-01
  1 709 7.52233969E-01
  1 710 6.71030671E-01
  1 711 7.26069857E-01
  1 712 8.00662317E-01
  1 713 7.72335475E-01
  1 714 7.52284310E-01
  1 715 7.27106820E-01
  1 716 7.13783895E-01
  1 717 6.75883131E-01
  1 718 7.00020912E-01
  1 719 6.53437827E-01
  1 720 6.70335878E-01
  1 721 6.55857181E-01
  1 722 7.63085544E-01
  1 723 8.54699122E-01
  1 724 9.59297169E-01
  1 725 8.83679511E-01
  1 726 8.53821748E-01
  1 727 8.23514734E-01
  1 728 8.81487320E-01
  1 729 9.55539672E-01
  1 730 1.01197711E+00
  1 731 9.32328312E-01
  1 732 8.62839308E-01
  1 733 9.07716073E-01
  1 734 8.91552288E-01
  1 735 8.64592050E-01
  1 736 8.47715194E-01
  1 737 8.83325691E-01
  1 738 8.15030118E-01
  1 739 8.72106165E-01
  1 740 9.10756620E-01
  1 741 9.58618743E-01
  1 742 8.92832948E-01
  1 743 8.76517144E-01
  1 744 8.03967327E-01
  1 745 8.04025198E-01
  1 746 7.81457764E-01
  1 747 8.13258912E-01
  1 748 8.45712379E-01
  1 749 8.73030158E-01
  1 750 8.48062690E-01
  1 751 8.50552064E-01
  1 752 7.98225899E-01
  1 753 6.75139586E-01
  1 754 6.73539482E-01
  1 755 8.02057162E-01
  1 756 8.40830528E-01
  1 757 7.73583090E-01
  1 758 7.58267262E-01
  1 759 7.14120969E-01
  1 760 6.29563619E-01
  1 761 6.01896726E-01
  1 762 6.57572179E-01
  1 763 6.63449377E-01
  1 764 6.77020812E-01
  1 765 6.87298348E-01
  1 766 7.68330680E-01
  1 767 8.30353044E-01
  1 768 8.99788553E-01
  1 769 8.86272062E-01
  1 770 9.44855168E-01
  1 771 9.40937799E-01
  1 772 9.97444664E-01
  1 773 1.03730599E+00
  1 774 1.06458936E+00
  1 775 9.18566222E-01
  1 776 8.84843768E-01
  1 777 9.11637260E-01
  1 778 9.16236525E-01
  1 779 8.66535131E-01
  1 780 8.76320498E-01
  1 781 8.59897223E-01
  1 782 8.14300020E-01
  1 783 8.71520480E-01
  1 784 9.07479403E-01
  1 785 9.28267015E-01
  1 786 8.57098591E-01
  1 787 8.38165654E-01
  1 788 7.93479904E-01
  1 789 9.23853777E-01
  1 790 1.00690061E+00
  1 791 1.09559690E+00
  1 792 1.06374734E+00
  1 793 1.07972265E+00
  1 794 1.08029401E+00
  1 795 1.18662511E+00
  1 796 1.19689195E+00
  1 797 1.15679903E+00
  1 798 1.13421118E+00
  1 799 1.14024448E+00
  1 800 1.08929526E+00
  1 801 7.67669599E-01
  1 802 8.47216747E-01
  1 803 8.52017146E-01
  1 804 8.72303034E-01
  1 805 8.72534297E-01
  1 806 8.32914363E-01
  1 807 6.86386004E-01
  1 808 6.71614327E-01
  1 809 6.74556495E-01
  1 810 7.80108036E-01
  1 811 7.58185875E-01
  1 812 7.35027115E-01
  1 813 6.49959803E-01
  1 814 6.65204833E-01
  1 815 6.25561268E-01
  1 816 6.72183780E-01
  1 817 6.77915328E-01
  1 818 6.58694161E-01
  1 819 6.86096010E-01
  1 820 8.48473730E-01
  1 821 9.21455543E-01
  1 822 8.51014579E-01
  1 823 8.19752735E-01
  1 824 8.22323855E-01
  1 825 8.55516855E-01
  1 826 9.24862990E-01
  1 827 1.02020564E+00
  1 828 9.73033501E-01
  1 829 9.01038813E-01
  1 830 8.36528740E-01
  1 831 8.48244941E-01
  1 832 8.75541481E-01
  1 833 9.13992190E-01
  1 834 8.49646835E-01
  1 835 8.19089769E-01
  1 836 8.34195822E-01
  1 837 9.30303925E-01
  1 838 9.82620702E-01
  1 839 9.71059400E-01
  1 840 8.07368204E-01
  1 841 7.31243687E-01
  1 842 7.16868205E-01
  1 843 7.41630689E-01
  1 844 7.42606472E-01
  1 845 8.49928782E-01
  1 846 8.55588326E-01
  1 847 8.09509590E-01
  1 848 7.79557958E-01
  1 849 7.77970361E-01
  1 850 7.11364556E-01
  1 851 6.90460727E-01
  1 852 7.48039850E-01
  1 853 7.62631253E-01
  1 854 7.90662045E-01
  1 855 7.72273207E-01
  1 856 7.57938842E-01
  1 857 6.48991982E-01
  1 858 6.41986710E-01
  1 859 6.29755184E-01
  1 860 7.26898648E-01
  1 861 6.95081932E-01
  1 862 7.07349747E-01
  1 863 7.44432453E-01
  1 864 8.78479033E-01
  1 865 8.46905914E-01
  1 866 8.48042895E-01
  1 867 8.92572580E-01
  1 868 9.19706471E-01
  1 869 8.91194579E-01
  1 870 9.49983490E-01
  1 871 1.02303386E+00
  1 872 9.81313226E-01
  1 873 9.56102823E-01
  1 874 9.32752611E-01
  1 875 9.24473458E-01
  1 876 8.72768731E-01
  1 877 8.84490519E-01
  1 878 8.38586913E-01
  1 879 8.29830501E-01
  1 880 8.05516628E-01
  1 881 8.55167866E-01
  1 882 8.61267040E-01
  1 883 8.22624993E-01
  1 884 7.15647107E-01
  1 885 7.60155878E-01
  1 886 8.69297921E-01
  1 887 9.62474370E-01
  1 888 1.01143892E+00
  1 889 1.10417625E+00
  1 890 1.09433500E+00
  1 891 1.08839128E+00
  1 892 1.14280068E+00
  1 893 1.22704753E+00
  1 894 1.20073283E+00
  1 895 1.17297480E+00
  1 896 1.11252732E+00
  1 897 1.07303928E+00
  1 898 1.10263245E+00
  1 899 1.16683851E+00
  1 900 1.13919437E+00
  1 901 8.92343668E-01
  1 902 8.98706719E-01
  1 903 8.37146649E-01
  1 904 7.59746003E-01
  1 905 6.38464396E-01
  1 906 6.66289709E-01
  1 907 7.63966312E-01
  1 908 8.08915037E-01
  1 909 7.46541709E-01
  1 910 7.60512025E-01
  1 911 7.36972383E-01
  1 912 6.74730079E-01
  1 913 6.67896007E-01
  1 914 7.62325161E-01
  1 915 7.59680204E-01
  1 916 7.49123942E-01
  1 917 7.84409488E-01
  1 918 8.26026222E-01
  1 919 8.11297274E-01
  1 920 8.10032932E-01
  1 921 8.21071285E-01
  1 922 8.34545307E-01
  1 923 9.10548055E-01
  1 924 9.76533904E-01
  1 925 1.03822592E+00
  1 926 9.73279809E-01
  1 927 9.14867055E-01
  1 928 8.67717655E-01
  1 929 9.60174943E-01
  1 930 9.08389513E-01
  1 931 8.71295528E-01
  1 932 8.36188578E-01
  1 933 9.02957012E-01
  1 934 8.79871628E-01
  1 935 9.56131616E-01
  1 936 9.59574113E-01
  1 937 8.72206770E-01
  1 938 7.24854162E-01
  1 939 6.72189991E-01
  1 940 6.71736586E-01
  1 941 7.31456407E-01
  1 942 8.46508651E-01
  1 943 8.38940959E-01
  1 944 7.81984600E-01
  1 945 7.02203223E-01
  1 946 7.12420921E-01
  1 947 6.73192766E-01
  1 948 7.03714608E-01
  1 949 6.84890255E-01
  1 950 7.48300541E-01
  1 951 7.61344063E-01
  1 952 7.79172237E-01
  1 953 7.47993054E-01
  1 954 7.88404842E-01
  1 955 7.32338929E-01
  1 956 6.67658988E-01
  1 957 6.63833102E-01
  1 958 7.24472017E-01
  1 959 7.48298255E-01
  1 960 8.33122098E-01
  1 961 8.94547902E-01
  1 962 8.54560076E-01
  1 963 8.20791066E-01
  1 964 8.88862878E-01
  1 965 9.19344070E-01
  1 966 9.07021388E-01
  1 967 9.48203833E-01
  1 968 1.01342653E+00
  1 969 1.04053092E+00
  1 970 1.03579867E+00
  1 971 1.04770684E+00
  1 972 1.02931038E+00
  1 973 9.76384400E-01
  1 974 8.40211629E-01
  1 975 8.26324473E-01
  1 976 8.60492546E-01
  1 977 8.76404859E-01
  1 978 7.59602764E-01
  1 979 7.49377589E-01
  1 980 6.73111106E-01
  1 981 6.60280706E-01
  1 982 7.08639881E-01
  1 983 8.72557412E-01
  1 984 8.92031755E-01
  1 985 9.64870030E-01
  1 986 1.05856168E+00
  1 987 1.13067789E+00
  1 988 1.13754674E+00
  1 989 1.17851506E+00
  1 990 1.20975744E+00
  1 991 1.16722242E+00
  1 992 1.13891738E+00
  1 993 1.09544177E+00
  1 994 1.15148144E+00
  1 995 1.14232417E+00
  1 996 1.13655712E+00
  1 997 1.08261639E+00
  1 998 1.13832313E+00
  1 999 1.05747227E+00
  1 1000 1.00524574E+00
  1 1001 6.96326407E-01
  1 1002 7.04271039E-01
  1 1003 6.99976974E-01
  1 1004 8.18354281E-01
  1 1005 8.04324588E-01
  1 1006 7.91501552E-01
  1 1007 8.05009956E-01
  1 1008 8.25966530E-01
  1 1009 7.48328275E-01
  1 1010 7.24497678E-01
  1 1011 7.62903908E-01
  1 1012 7.49644963E-01
  1 1013 7.52880190E-01
  1 1014 7.51880865E-01
  1 1015 8.11251254E-01
  1 1016 7.71619496E-01
  1 1017 7.49807040E-01
  1 1018 7.18419580E-01
  1 1019 8.77781648E-01
  1 1020 9.43265490E-01
  1 1021 9.72480998E-01
  1 1022 9.49448388E-01
  1 1023 9.93893459E-01
  1 1024 9.27006259E-01
  1 1025 9.45398421E-01
  1 1026 9.74955174E-01
  1 1027 9.19168072E-01
  1 1028 7.94319352E-01
  1 1029 7.96357177E-01
  1 1030 8.50598415E-01
  1 1031 8.87337107E-01
  1 1032 9.40474389E-01
  1 1033 9.26428952E-01
  1 1034 8.13169252E-01
  1 1035 6.78799356E-01
  1 1036 6.57536710E-01
  1 1037 7.12093500E-01
  1 1038 7.88924886E-01
  1 1039 7.58418549E-01
  1 1040 7.19572871E-01
  1 1041 7.23048376E-01
  1 1042 7.33931700E-01
  1 1043 6.52767972E-01
  1 1044 6.32625996E-01
  1 1045 6.08749662E-01
  1 1046 6.20941663E-01
  1 1047 6.75639493E-01
  1 1048 8.18698504E-01
  1 1049 8.18177810E-01
  1 1050 8.26004072E-01
  1 1051 8.01934810E-01
  1 1052 7.79692947E-01
  1 1053 6.98203894E-01
  1 1054 7.41879598E-01
  1 1055 7.40199739E-01
  1 1056 7.42622988E-01
  1 1057 7.77546343E-01
  1 1058 8.80889291E-01
  1 1059 9.41508286E-01
  1 1060 9.36016607E-01
  1 1061 9.01786585E-01
  1 1062 8.75985956E-01
  1 1063 9.80374932E-01
  1 1064 1.05189029E+00
  1 1065 1.14327345E+00
  1 1066 1.14287474E+00
  1 1067 1.15633743E+00
  1 1068 1.07574263E+00
  1 1069 1.13250761E+00
  1 1070 1.07894836E+00
  1 1071 9.86256814E-01
  1 1072 8.73963152E-01
  1 1073 8.98924008E-01
  1 1074 8.18832970E-01
  1 1075 7.66596163E-01
  1 1076 7.48693894E-01
  1 1077 7.01774037E-01
  1 1078 5.96921866E-01
  1 1079 6.15061484E-01
  1 1080 7.78934947E-01
  1 1081 9.25938168E-01
  1 1082 1.01509194E+00
  1 1083 1.02156359E+00
  1 1084 1.07763063E+00
  1 1085 1.14096248E+00
  1 1086 1.21487264E+00
  1 1087 1.22269890E+00
  1 1088 1.23133091E+00
  1 1089 1.13036367E+00
  1 1090 1.07283471E+00
  1 1091 1.11931439E+00
  1 1092 1.21396292E+00
  1 1093 1.18260713E+00
  1 1094 1.19140455E+00
  1 1095 1.18304040E+00
  1 1096 1.12671121E+00
  1 1097 1.05396013E+00
  1 1098 1.11928926E+00
  1 1099 1.10990112E+00
  1 1100 1.05212667E+00
  1 1101 8.29536135E-01
  1 1102 8.86197972E-01
  1 1103 9.12788179E-01
  1 1104 8.63865934E-01
  1 1105 8.25649512E-01
  1 1106 7.80186141E-01
  1 1107 7.88906667E-01
  1 1108 7.52166971E-01
  1 1109 7.76678566E-01
  1 1110 7.66011815E-01
  1 1111 7.55344737E-01
  1 1112 7.50688212E-01
  1 1113 8.12050204E-01
  1 1114 7.87624411E-01
  1 1115 8.15575455E-01
  1 1116 8.93935905E-01
  1 1117 9.49002035E-01
  1 1118 9.11195202E-01
  1 1119 9.82395713E-01
  1 1120 1.01858418E+00
  1 1121 9.77204317E-01
  1 1122 9.01407950E-01
  1 1123 9.32512318E-01
  1 1124 9.03893281E-01
  1 1125 8.49480608E-01
  1 1126 7.87318165E-01
  1 1127 8.16886634E-01
  1 1128 8.80112766E-01
  1 1129 9.11410935E-01
  1 1130 8.75505628E-01
  1 1131 8.00223482E-01
  1 1132 7.22109362E-01
  1 1133 6.19747690E-01
  1 1134 6.79799422E-01
  1 1135 7.42846636E-01
  1 1136 7.68124541E-01
  1 1137 6.92186474E-01
  1 1138 7.37836591E-01
  1 1139 6.58640110E-01
  1 1140 6.22249336E-01
  1 1141 6.02040370E-01
  1 1142 6.62035877E-01
  1 1143 5.88792903E-01
  1 1144 6.28143276E-01
  1 1145 7.35678323E-01
  1 1146 8.73020545E-01
  1 1147 9.03425661E-01
  1 1148 8.65966819E-01
  1 1149 7.97891157E-01
  1 1150 7.46711920E-01
  1 1151 7.41420429E-01
  1 1152 7.18916318E-01
  1 1153 7.79598060E-01
  1 1154 8.09554449E-01
  1 1155 8.61748845E-01
  1 1156 8.82102388E-01
  1 1157 9.53319284E-01
  1 1158 9.28329578E-01
  1 1159 9.88252832E-01
  1 1160 1.05931946E+00
  1 1161 1.12378362E+00
  1 1162 1.13213537E+00
  1 1163 1.22623992E+00
  1 1164 1.22981688E+00
  1 1165 1.17159116E+00
  1 1166 1.11659139E+00
  1 1167 1.10167851E+00
  1 1168 1.00963868E+00
  1 1169 9.45270557E-01
  1 1170 8.94376678E-01
  1 1171 8.52042810E-01
  1 1172 7.86001767E-01
  1 1173 7.32543791E-01
  1 1174 6.39399933E-01
  1 1175 5.92964056E-01
  1 1176 6.20407021E-01
  1 1177 7.23742664E-01
  1 1178 8.47489569E-01
  1 1179 9.05957985E-01
  1 1180 9.35753219E-01
  1 1181 1.01982416E+00
  1 1182 1.16236854E+00
  1 1183 1.15819031E+00
  1 1184 1.17151570E+00
  1 1185 1.16903505E+00
  1 1186 1.14928364E+00
  1 1187 1.02536301E+00
  1 1188 1.09709533E+00
  1 1189 1.13835772E+00
  1 1190 1.15988848E+00
  1 1191 1.10719900E+00
  1 1192 1.16585425E+00
  1 1193 1.16119772E+00
  1 1194 1.19259599E+00
  1 1195 1.17697794E+00
  1 1196 1.14562540E+00
  1 1197 1.08400134E+00
  1 1198 1.04483163E+00
  1 1199 1.06160790E+00
  1 1200 1.07227203E+00
  1 1201 8.24579802E-01
  1 1202 7.85090262E-01
  1 1203 8.21863844E-01
  1 1204 7.69700053E-01
  1 1205 7.02371088E-01
  1 1206 6.62715810E-01
  1 1207 7.34507121E-01
  1 1208 6.93462785E-01
  1 1209 7.39764244E-01
  1 1210 7.55229487E-01
  1 1211 7.86436685E-01
  1 1212 7.47724805E-01
  1 1213 8.48622423E-01
  1 1214 8.96373473E-01
  1 1215 9.42487990E-01
  1 1216 9.22092371E-01
  1 1217 8.96472794E-01
  1 1218 8.59036413E-01
  1 1219 8.68047567E-01
  1 1220 8.88862742E-01
  1 1221 8.46172483E-01
  1 1222 7.98870171E-01
  1 1223 7.12262055E-01
  1 1224 7.80171632E-01
  1 1225 8.65652965E-01
  1 1226 9.04212365E-01
  1 1227 7.70206543E-01
  1 1228 7.36843672E-01
  1 1229 6.37520969E-01
  1 1230 5.75708366E-01
  1 1231 5.85993483E-01
  1 1232 7.19840760E-01
  1 1233 6.83660982E-01
  1 1234 6.18704880E-01
  1 1235 6.02280587E-01
  1 1236 6.41112224E-01
  1 1237 6.34721163E-01
  1 1238 6.15834413E-01
  1 1239 5.48263907E-01
  1 1240 4.93792702E-01
  1 1241 5.30439245E-01
  1 1242 6.59710711E-01
  1 1243 8.09696038E-01
  1 1244 8.58009743E-01
  1 1245 7.82247251E-01
  1 1246 7.21994326E-01
  1 1247 7.57222839E-01
  1 1248 7.47865949E-01
  1 1249 7.34594321E-01
  1 1250 7.72791999E-01
  1 1251 7.95558845E-01
  1 1252 7.30497479E-01
  1 1253 8.08549761E-01
  1 1254 9.21436542E-01
  1 1255 9.82754184E-01
  1 1256 9.49003977E-01
  1 1257 1.02389742E+00
  1 1258 1.06938887E+00
  1 1259 1.18782542E+00
  1 1260 1.21818219E+00
  1 1261 1.21204881E+00
  1 1262 1.10307761E+00
  1 1263 1.07821914E+00
  1 1264 1.02668263E+00
  1 1265 1.00886718E+00
  1 1266 9.33844086E-01
  1 1267 8.33551086E-01
  1 1268 7.71845763E-01
  1 1269 7.49267299E-01
  1 1270 7.01080174E-01
  1 1271 6.12746049E-01
  1 1272 6.29965912E-01
  1 1273 5.85925088E-01
  1 1274 6.27839989E-01
  1 1275 7.23302599E-01
  1 1276 8.90863111E-01
  1 1277 8.86082621E-01
  1 1278 9.61827808E-01
  1 1279 1.00963711E+00
  1 1280 1.09973256E+00
  1 1281 1.13782703E+00
  1 1282 1.19357327E+00
  1 1283 1.08792837E+00
  1 1284 9.94944172E-01
  1 1285 9.86710433E-01
  1 1286 1.05223452E+00
  1 1287 1.07952795E+00
  1 1288 1.06663866E+00
  1 1289 1.07229149E+00