# File generated by Flopy version 3.5.0 on 02/08/2024 at 15:37:08.
BEGIN options
  SAVE_FLOWS
END options

BEGIN packages
  DISV6  Reference.disv  disv
  NPF6  Reference.npf  npf
  IC6  Reference.ic  ic
  STO6  Reference.sto  sto
  RCH6  Reference.rch  rch_0
  WEL6  Reference.wel  wel_0
  RIV6  Reference.riv  riv_0
  CHD6  Reference.chd  chd_0
  OC6  Reference.oc  oc
END packages

