# File generated by Flopy version 3.5.0 on 02/05/2024 at 16:08:08.
BEGIN options
  PRINT_OPTION  summary
  COMPLEXITY  complex
END options

BEGIN linear
  LINEAR_ACCELERATION  bicgstab
END linear

