# File generated by Flopy version 3.5.0 on 01/25/2024 at 13:15:34.
BEGIN griddata
  strt
    INTERNAL  FACTOR  1.0
        15.00000000      15.00000000      15.00000000      15.00000000      15.00000000      15.00000000      15.00000000      15.00000000      15.00000000      15.00000000      15.00000000      15.00000000      15.00000000      15.00000000      15.00000000      15.00000000      15.00000000      15.00000000      15.00000000      15.00000000
        15.00000000      15.00000000      15.00000000      15.00000000      15.00000000      15.00000000      15.00000000      15.00000000      15.00000000      15.00000000      15.00000000      15.00000000      15.00000000      15.00000000      15.00000000      15.00000000      15.00000000      15.00000000      15.00000000      15.00000000
        15.00000000      15.00000000      15.00000000      15.00000000      15.00000000      15.00000000      15.00000000      15.00000000      15.00000000      15.00000000      15.00000000      15.00000000      15.00000000      15.00000000      15.00000000      15.00000000      15.00000000      15.00000000      15.00000000      15.00000000
        15.00000000      15.00000000      15.00000000      15.00000000      15.00000000      15.00000000      15.00000000      15.00000000      15.00000000      15.00000000      15.00000000      15.00000000      15.00000000      15.00000000      15.00000000      15.00000000      15.00000000      15.00000000      15.00000000      15.00000000
        15.00000000      15.00000000      15.00000000      15.00000000      15.00000000      15.00000000      15.00000000      15.00000000      15.00000000      15.00000000      15.00000000      15.00000000      15.00000000      15.00000000      15.00000000      15.00000000      15.00000000      15.00000000      15.00000000      15.00000000
        15.12552166      15.13924614      15.12499690      15.11752537      15.10131078      15.10548810      15.11161464      15.11688536      15.09692697      15.07590541      15.07840175      15.09404374      15.10659500      15.11554493      15.13461352      15.14207394      15.17917161      15.18114863      15.16230003      15.13956102
        15.12280159      15.13024837      15.13653936      15.13328760      15.11846030      15.10437528      15.09833419      15.09190196      15.08400118      15.08608978      15.09277811      15.10182269      15.12779889      15.13563966      15.15576217      15.16136820      15.17092805      15.16055518      15.16048456      15.15716814
        15.14533211      15.14583683      15.17492528      15.19624105      15.21436197      15.23144814      15.20445620      15.20520190      15.22511875      15.26619428      15.28485063      15.27191347      15.30819775      15.30061512      15.30388289      15.25329499      15.20265947      15.16153490      15.18544583      15.18299323
        15.19827578      15.19300867      15.18599927      15.17010041      15.17136420      15.18529790      15.17695116      15.18445205      15.18746048      15.14830093      15.11875029      15.10422878      15.10425365      15.10475951      15.11225459      15.10818228      15.09835640      15.08576101      15.07819279      15.06541028
        15.06706628      15.06406857      15.05084916      15.04520291      15.04100529      15.04482426      15.04966221      15.05766488      15.06401039      15.06738521      15.06691077      15.06697595      15.05390902      15.04918264      15.05331295      15.06088690      15.07186978      15.06965737      15.06331025      15.05559850
        15.22989011      15.24478317      15.24767117      15.23844189      15.22246496      15.21527307      15.21910314      15.22245934      15.21009218      15.17586997      15.17131704      15.18474034      15.20852460      15.22651494      15.25902670      15.27662636      15.30932162      15.32918510      15.30838549      15.28566277
        15.24981929      15.24672787      15.25497223      15.25247054      15.23549625      15.21759531      15.19938794      15.19107767      15.18089429      15.17819344      15.18977414      15.19739222      15.22639027      15.25720858      15.28053643      15.29535282      15.30094785      15.30526708      15.30426868      15.32006142
        15.30973030      15.31651515      15.33677966      15.37414306      15.40480204      15.45479630      15.43715462      15.42698189      15.44355121      15.46785786      15.51362904      15.51502481      15.55439248      15.56460929      15.53271427      15.48131822      15.41963612      15.35097505      15.35620129      15.36378440
        15.36209900      15.37005362      15.35082328      15.33364373      15.32840712      15.34862167      15.34736393      15.34365741      15.34483894      15.29955947      15.24724628      15.22071580      15.21300983      15.20752671      15.20298677      15.20022740      15.19087054      15.17385063      15.15818035      15.13947390
        15.12580461      15.12869755      15.10981930      15.09731180      15.09043747      15.08986479      15.09722840      15.11249840      15.11894961      15.12368233      15.12176544      15.12397798      15.11231815      15.09956753      15.10208871      15.11191556      15.12237166      15.12516622      15.11996292      15.11297213
        15.32243519      15.33095111      15.35020547      15.35394508      15.34654864      15.33272652      15.32670821      15.32259204      15.31884600      15.29365212      15.28270905      15.28703138      15.31035615      15.33747713      15.36509508      15.39705809      15.41741965      15.44893120      15.44148375      15.42129313
        15.38457161      15.35822028      15.35258116      15.35459359      15.34596679      15.33128066      15.31000693      15.29106605      15.28018982      15.27191648      15.27832316      15.28991427      15.31351302      15.36012935      15.38412746      15.40758984      15.41068979      15.42646939      15.44091893      15.47060705
        15.47854794      15.49199483      15.50656134      15.54802291      15.59944581      15.66097442      15.68189044      15.65666782      15.66727692      15.67702523      15.71141227      15.73027217      15.76583711      15.78606671      15.74042749      15.67872436      15.62883640      15.55554780      15.52341380      15.52700515
        15.51171448      15.51601857      15.50629382      15.49138180      15.48486398      15.48250485      15.49024553      15.48077832      15.48022695      15.44643687      15.38451136      15.33927411      15.32347432      15.30322811      15.28950352      15.28029115      15.27097341      15.25779634      15.24224954      15.21838054
        15.19225872      15.18593692      15.17401567      15.15518775      15.14831992      15.14061571      15.14753934      15.16306858      15.17283292      15.17486591      15.17280105      15.16988665      15.16945652      15.15365081      15.15125195      15.15527733      15.16290000      15.16792022      15.17149145      15.16624987
        15.41197647      15.40907627      15.43296773      15.44882832      15.45469934      15.44281043      15.43550985      15.41696404      15.41659305      15.40583308      15.40087522      15.40185655      15.41712605      15.44250873      15.47033885      15.50024708      15.52136624      15.54519324      15.55699872      15.53557588
        15.51351761      15.47118593      15.44716768      15.44135184      15.44708662      15.44140623      15.43170615      15.39748824      15.38022958      15.36738835      15.36307911      15.38177132      15.40409049      15.44497738      15.47483670      15.49566458      15.51006532      15.52981095      15.55950269      15.59823113
        15.63518995      15.65124319      15.67556496      15.71188324      15.78123498      15.84715316      15.90038976      15.88512993      15.88120448      15.88824615      15.90351120      15.92716767      15.95009111      15.96221706      15.93116698      15.85976308      15.81085573      15.75724607      15.68973268      15.67793248
        15.65843585      15.64502445      15.64885966      15.64244888      15.63570668      15.62469243      15.61754789      15.60685235      15.60139052      15.58355864      15.52749073      15.46740041      15.43089746      15.39960229      15.37202396      15.35996857      15.34563289      15.33358023      15.31852204      15.29787260
        15.26420513      15.24106933      15.23308673      15.21663272      15.20638663      15.20036339      15.19898767      15.20882784      15.21969587      15.22134291      15.22358440      15.21988352      15.22121955      15.20991086      15.19975949      15.19814352      15.20214100      15.20741558      15.21613117      15.21869236
        15.48655246      15.48938489      15.50533165      15.52850990      15.53888993      15.53526705      15.52739864      15.51133617      15.50475112      15.50632835      15.50408351      15.51348353      15.52094991      15.54232156      15.56373607      15.58446947      15.60935838      15.63032570      15.64947257      15.63984590
        15.61853291      15.58277155      15.54807975      15.53541358      15.54147307      15.54885193      15.54664848      15.52319538      15.48853385      15.47280263      15.45318514      15.47134872      15.49529642      15.52712768      15.55551703      15.57302217      15.59780737      15.63108845      15.67056624      15.71594117
        15.76209829      15.79103515      15.83160447      15.87483983      15.94180741      16.00992079      16.05949914      16.08542703      16.07994791      16.08111987      16.08114224      16.09775204      16.10966653      16.11852870      16.09253817      16.02870849      15.96201305      15.92879548      15.85392641      15.81760291
        15.79649250      15.77851131      15.78403777      15.79179052      15.77773196      15.77137715      15.74996015      15.74105095      15.72842917      15.71722935      15.67115553      15.60301801      15.54427967      15.51018962      15.46127366      15.44129091      15.42153776      15.40347386      15.38659186      15.37028699
        15.33803704      15.30298948      15.28599953      15.27328313      15.26019794      15.25586820      15.25139621      15.25252678      15.25992542      15.26202629      15.26906700      15.27091234      15.27014161      15.26324671      15.24821823      15.24094291      15.24300549      15.24840161      15.25875744      15.26764685
        15.55630544      15.56792706      15.57444035      15.59342777      15.60612732      15.60913714      15.60073766      15.59339998      15.58375501      15.59212472      15.59566605      15.60367551      15.61175744      15.62633697      15.64142489      15.65822629      15.68194413      15.70126747      15.71751787      15.72136815
        15.70211669      15.67575062      15.64639621      15.63336355      15.64090963      15.65028449      15.64727169      15.64415222      15.61413570      15.59196742      15.56934299      15.56210831      15.58760906      15.60683879      15.63393681      15.65385938      15.68567155      15.72605036      15.78202437      15.82451761
        15.87416149      15.91343676      15.96875988      16.02256022      16.08819429      16.14469110      16.19160849      16.23602460      16.25479377      16.25083477      16.25063910      16.24213346      16.25023485      16.25130498      16.22760181      16.16846441      16.09128658      16.04566071      15.98787461      15.93404204
        15.92395834      15.91025312      15.91485174      15.93210181      15.92570284      15.91061864      15.90285556      15.88522039      15.87219405      15.85646607      15.82054269      15.74682464      15.67230189      15.63286227      15.57856034      15.53318725      15.50581048      15.47446138      15.45483019      15.43504657
        15.41049500      15.37070326      15.34137927      15.32441662      15.31053013      15.30062954      15.29969370      15.29417632      15.29662585      15.30020693      15.30798587      15.31664926      15.31922127      15.31275927      15.29629482      15.28450177      15.28394262      15.29154894      15.29952415      15.30825418
        15.64015543      15.64454257      15.64616376      15.65236414      15.66496507      15.66908667      15.66631710      15.66334176      15.65743686      15.66269312      15.67255735      15.67517047      15.68555254      15.69475284      15.70548572      15.72063725      15.73863360      15.75637308      15.76999706      15.77712603
        15.76993675      15.75052078      15.72976319      15.72467395      15.73362411      15.74130335      15.73742851      15.73921290      15.73319654      15.71528007      15.69707845      15.67055812      15.67942542      15.69067358      15.71433698      15.74281452      15.77711703      15.82566031      15.89070675      15.93584941
        15.97891109      16.02690844      16.08943848      16.16234023      16.22119115      16.26764417      16.31095230      16.35552447      16.39252820      16.40361818      16.40343127      16.38788117      16.37290713      16.36718712      16.34270233      16.28435132      16.19957817      16.13235966      16.07452945      16.02281062
        16.02679158      16.03195323      16.03549406      16.05764944      16.06813377      16.05651514      16.05873188      16.04086031      16.01732515      16.00465921      15.96815318      15.90584338      15.81417842      15.75950030      15.71387473      15.65264152      15.60646313      15.56187781      15.52804341      15.50399113
        15.48163475      15.44141681      15.40316125      15.37949038      15.35987350      15.34470299      15.33983364      15.33521025      15.33189369      15.34003259      15.34527783      15.35824143      15.36314049      15.36078572      15.34340797      15.32923119      15.32352737      15.33375757      15.33705827      15.34307212
        15.73201801      15.72238748      15.71862343      15.71546257      15.71738866      15.72315226      15.72351371      15.72664345      15.72740246      15.72680873      15.73304074      15.73907826      15.74354177      15.75355050      15.76040611      15.77537366      15.78767392      15.80193830      15.81014899      15.81678599
        15.81834409      15.81175442      15.79946726      15.80000468      15.80525905      15.81667309      15.81656030      15.81995765      15.82997519      15.82699679      15.81331922      15.78795778      15.76975907      15.77738741      15.79770028      15.83280009      15.87286904      15.92607999      15.98522388      16.04221763
        16.08189423      16.14044394      16.20898004      16.28636310      16.33554479      16.38379842      16.42574877      16.47232758      16.50597407      16.53108367      16.53919817      16.53889422      16.50523741      16.48158757      16.45069942      16.38426025      16.29448764      16.20779572      16.12722537      16.05938830
        16.10035153      16.13653109      16.15363867      16.16585387      16.18793102      16.19747922      16.20320181      16.19511416      16.15719301      16.13610091      16.10755462      16.05927895      15.97733068      15.89147895      15.84982276      15.78616015      15.73096028      15.66636078      15.61635234      15.57862212
        15.55774444      15.51567002      15.47318666      15.44168142      15.41370886      15.39117830      15.37930177      15.37754530      15.37247531      15.37929045      15.38799096      15.39877019      15.40737180      15.40856384      15.39313024      15.37419274      15.36644091      15.37055748      15.37341717      15.37241659
        15.82643581      15.79983224      15.78924856      15.78104175      15.77554494      15.77483674      15.77552991      15.78029639      15.79198107      15.79002603      15.78876163      15.79304154      15.79543024      15.80484173      15.81396875      15.82333114      15.83410380      15.83902829      15.84604929      15.84873281
        15.85857880      15.86067031      15.85995290      15.85987773      15.86535632      15.87197794      15.88181096      15.89034410      15.90951830      15.91774778      15.91485188      15.89298632      15.86602890      15.86353529      15.88862021      15.92120548      15.96336537      16.01189396      16.06920845      16.13270794
        16.17997993      16.24472294      16.32302472      16.39061454      16.44200871      16.48853380      16.53333612      16.58571612      16.62081045      16.64803812      16.67127270      16.67642611      16.65506159      16.60978677      16.56762819      16.48806447      16.39127043      16.29278219      16.17266644      15.98498129
        16.16288687      16.23116141      16.26937302      16.27848612      16.29891906      16.31952706      16.32677485      16.32678110      16.29215998      16.25000659      16.23134660      16.18469400      16.13159709      16.03743105      15.97697872      15.91512209      15.85888248      15.78893357      15.72466878      15.66491483
        15.63303407      15.59473585      15.54615920      15.51629145      15.47748992      15.44346805      15.42295741      15.42182645      15.42015694      15.42298487      15.43446226      15.44176630      15.45462790      15.45929463      15.44855593      15.42473680      15.40950831      15.40421354      15.40897990      15.40608860
        15.92059537      15.88374696      15.85487597      15.84393900      15.83678918      15.82940091      15.82802914      15.83147209      15.84395078      15.84799878      15.84259161      15.84148931      15.84403981      15.85028659      15.86245399      15.87006852      15.87822259      15.87836168      15.88327558      15.89056982
        15.90016871      15.90706776      15.91172129      15.91150233      15.91642920      15.92115614      15.93796906      15.95554769      15.97368507      15.98914950      15.99665370      15.98431881      15.96162997      15.95068993      15.97221348      16.00808157      16.04078477      16.08854470      16.14263584      16.20426261
        16.26227834      16.33908856      16.42269567      16.48601567      16.53264490      16.58217730      16.63555881      16.69461840      16.73424652      16.76644484      16.79674584      16.80579955      16.79839778      16.75730760      16.69733579      16.62193301      16.50872568      16.41856760      16.32760278      16.26434274
        16.29793928      16.34620592      16.38076159      16.40323338      16.41076305      16.42868153      16.42938455      16.42845213      16.41147345      16.36535155      16.33712786      16.29819311      16.24963875      16.17340278      16.09416802      16.03692038      15.96828401      15.90854455      15.83927855      15.76918271
        15.70722148      15.67512696      15.61968716      15.59306909      15.55152511      15.50465262      15.47429121      15.46663342      15.47108615      15.47395276      15.48396810      15.49240341      15.50563069      15.51417632      15.50965015      15.48466855      15.45809047      15.44295662      15.44255277      15.44507611
        16.02198853      15.97783601      15.92596642      15.90367378      15.89358842      15.88521820      15.88008663      15.88044997      15.88502622      15.89479757      15.89109126      15.88716256      15.88850268      15.89236705      15.90399386      15.91304472      15.91625144      15.91843388      15.92141551      15.92974265
        15.94142190      15.95091586      15.95759723      15.95838017      15.96095702      15.96994412      15.99147989      16.01481458      16.03195674      16.04910566      16.06129564      16.06341528      16.05287101      16.04104295      16.05263131      16.08800766      16.11291191      16.15453107      16.20649100      16.26349296
        16.32973645      16.41234462      16.50697051      16.57214554      16.61754498      16.66805323      16.73079953      16.78862304      16.84098151      16.87663033      16.91172223      16.92717030      16.92293873      16.89972877      16.84313098      16.77096523      16.65899595      16.55856959      16.48840084      16.44199682
        16.44407709      16.46340496      16.49436179      16.52067437      16.53023258      16.53195257      16.52615836      16.50873526      16.50960697      16.47588517      16.43589825      16.40571265      16.35492820      16.29001104      16.21218715      16.15261693      16.07665135      16.01499950      15.94946440      15.88293694
        15.80006771      15.75031022      15.69621349      15.65663398      15.62811055      15.57438752      15.53464090      15.51393539      15.52013081      15.52557997      15.53772637      15.54787249      15.55791194      15.56670573      15.56993835      15.55036052      15.51712808      15.49041959      15.47968349      15.48531919
        16.12778408      16.07776111      16.01117106      15.96320613      15.94799825      15.93971459      15.93230114      15.92868136      15.92731437      15.93135928      15.93240461      15.92767013      15.92832472      15.93085737      15.93924171      15.94760653      15.95125279      15.95404112      15.95967730      15.96620186
        15.97807549      15.98835549      15.99895524      16.00234607      16.00432898      16.01674011      16.04175568      16.06853610      16.08772660      16.10235621      16.11688361      16.12938059      16.13321956      16.13223800      16.13131316      16.15276417      16.18166174      16.21632631      16.26650781      16.31864250
        16.38545671      16.47922820      16.58900567      16.65303530      16.69938460      16.74541396      16.80983768      16.87866278      16.94054441      16.97795746      17.00959007      17.02960471      17.03014194      17.01989066      16.98551639      16.91810056      16.82139793      16.70204125      16.63164044      16.58639572
        16.57791060      16.58142591      16.60787688      16.62395756      16.63782908      16.62968596      16.61951344      16.59914847      16.59577003      16.58320032      16.53572152      16.50757792      16.46281554      16.40491517      16.32983002      16.26980206      16.18498443      16.11204163      16.04900159      15.99089401
        15.90976073      15.83132978      15.77372829      15.72121251      15.69807077      15.64986383      15.59955451      15.57230160      15.56625377      15.57438009      15.58769055      15.60298060      15.60956202      15.61787976      15.62040008      15.61318054      15.58227304      15.55095422      15.52806648      15.52704586
        16.22048984      16.18097656      16.10351026      16.03521796      16.00415906      15.99747412      15.98687138      15.97914305      15.97062674      15.96831980      15.97011884      15.96560032      15.96234019      15.96509087      15.96879178      15.97623840      15.98173745      15.98494094      15.99296082      16.00077912
        16.00863921      16.02107635      16.03068339      16.04044107      16.04673435      16.06213059      16.08598076      16.11611185      16.13482568      16.15559171      16.17104764      16.18930962      16.19973460      16.21258440      16.21123067      16.22060157      16.24868189      16.27931439      16.32385752      16.37708634
        16.44224406      16.54501296      16.65604018      16.73105404      16.78323634      16.83152764      16.88758201      16.96655261      17.02518365      17.07330094      17.09636432      17.11327285      17.12094379      17.11870516      17.10361736      17.05628155      16.97443675      16.84777341      16.75491414      16.70978711
        16.69719154      16.69467797      16.70553186      16.71680960      16.72330052      16.71870984      16.70360060      16.69233321      16.67846351      16.68566738      16.64478436      16.60334821      16.56899832      16.52052761      16.45492227      16.39395676      16.29905105      16.20509499      16.14649270      16.08502648
        16.02214918      15.92635729      15.85797366      15.80053580      15.76566061      15.72567939      15.66812031      15.63231906      15.61835483      15.62377934      15.63501501      15.65140724      15.65745089      15.66204999      15.66340492      15.66459300      15.64544474      15.61509168      15.59042691      15.57339702
        16.29356577      16.27839704      16.20595834      16.11957770      16.06953123      16.05548463      16.04918490      16.03612886      16.02123981      16.00943517      16.00778743      16.00259209      15.99716874      15.99561172      15.99710030      16.00114790      16.00803360      16.01335466      16.02154391      16.03021126
        16.03600968      16.04858760      16.05783905      16.07037447      16.08353372      16.10079363      16.12594665      16.15531747      16.17734078      16.20290936      16.22297836      16.24144802      16.26033764      16.27446976      16.28484296      16.28924380      16.31304451      16.34235617      16.38138144      16.43261963
        16.50125575      16.60585376      16.72192757      16.80849896      16.86645969      16.91900286      16.97520424      17.05504407      17.11480938      17.15887223      17.18133960      17.18720208      17.20508767      17.20507716      17.20421502      17.17547485      17.11537165      16.99473230      16.87175428      16.81499933
        16.80481882      16.79693444      16.78980513      16.79616773      16.79430914      16.79486289      16.78597008      16.77913781      16.76806766      16.76940415      16.75135716      16.70161543      16.67090546      16.62191547      16.57029595      16.51179261      16.42321566      16.30075825      16.23831776      16.17539191
        16.12959760      16.03747210      15.95122535      15.89342214      15.84341029      15.80334266      15.74542234      15.69251885      15.67573690      15.67552131      15.68148815      15.69101578      15.69839789      15.69977162      15.70443005      15.70559425      15.70271951      15.68004444      15.66062483      15.63837723
        16.35726657      16.35397759      16.30734868      16.21835964      16.14933762      16.11559607      16.11081285      16.09760025      16.08295813      16.06071405      16.04962000      16.04087251      16.03352962      16.02623734      16.02545853      16.02647994      16.03215992      16.03999793      16.04625828      16.05492346
        16.06201756      16.07292233      16.08396920      16.09537908      16.11231084      16.13302952      16.16141972      16.18912720      16.21681473      16.24286342      16.26953145      16.28860216      16.31126503      16.32558697      16.34369490      16.35499780      16.37433253      16.40223020      16.43283274      16.48562192
        16.55721196      16.66161157      16.78188958      16.87551803      16.94227764      17.00839424      17.07140015      17.14581894      17.20152408      17.23058617      17.25969781      17.26985340      17.28476926      17.29526481      17.29346060      17.27906405      17.23495679      17.14770302      17.00248481      16.92378096
        16.89694386      16.89634877      16.87307480      16.86854268      16.85774318      16.86120652      16.86429663      16.86258526      16.85321300      16.84131404      16.83782713      16.80156382      16.76291445      16.71668579      16.66068045      16.60996420      16.54392116      16.41720648      16.31801080      16.26011088
        16.21162659      16.14217133      16.04727799      15.98991671      15.93227068      15.88457397      15.82968304      15.76457085      15.73248705      15.72966250      15.72924139      15.73030593      15.73465479      15.73681690      15.74281760      15.74700590      15.75127945      15.74271194      15.72719483      15.71458506
        16.41085976      16.41036713      16.38661584      16.31513236      16.23713150      16.18463675      16.16190108      16.15381069      16.14357120      16.12236431      16.09811415      16.08367834      16.07048703      16.06142401      16.05336831      16.05395894      16.05604358      16.06480919      16.07006604      16.07825983
        16.08638197      16.09634040      16.10915583      16.12085089      16.13883858      16.16107938      16.19240483      16.22399183      16.25496720      16.28124984      16.30884139      16.33024173      16.35144042      16.37192582      16.39034694      16.41041818      16.42757918      16.45209685      16.48205400      16.53548746
        16.60749777      16.70791700      16.83224468      16.93203082      17.00780355      17.07890577      17.15237517      17.22708339      17.28018642      17.30259167      17.32805640      17.34921217      17.36293705      17.38706976      17.38554214      17.37743883      17.34380989      17.29433373      17.16020074      17.04158241
        16.98973708      16.98760527      16.96638309      16.94576226      16.93293698      16.92359737      16.93742368      16.94379621      16.93775682      16.91810626      16.91225874      16.88889478      16.84737873      16.80079884      16.73662931      16.68320227      16.63571661      16.53540476      16.40293688      16.32736198
        16.27795904      16.22491706      16.14209775      16.07600684      16.02349751      15.96339229      15.91095733      15.84420874      15.79572746      15.78465214      15.77900190      15.76961354      15.77183876      15.77582845      15.78328744      15.79153560      15.79652997      15.79752052      15.79020919      15.78383598
        16.45913030      16.45588219      16.44249925      16.39123539      16.31907088      16.25652732      16.21535439      16.20119957      16.19254366      16.18059044      16.15483115      16.13225535      16.11146238      16.09846105      16.08433861      16.08112044      16.08160643      16.08620545      16.09353189      16.09982897
        16.11161716      16.12155943      16.13377697      16.14555793      16.16489625      16.18789612      16.22462978      16.26066755      16.29153536      16.31788543      16.34444404      16.36885012      16.39032552      16.41108210      16.43192627      16.45524854      16.47505382      16.49431325      16.52807226      16.58054963