# File generated by Flopy version 3.5.0 on 02/09/2024 at 11:13:36.
BEGIN options
  PRINT_OPTION  summary
  COMPLEXITY  complex
END options

BEGIN linear
  LINEAR_ACCELERATION  bicgstab
END linear

