# File generated by Flopy version 3.5.0 on 01/30/2024 at 14:46:12.
BEGIN options
  PRINT_OPTION  summary
  COMPLEXITY  complex
END options

BEGIN linear
  LINEAR_ACCELERATION  bicgstab
END linear

