# File generated by Flopy version 3.5.0 on 02/07/2024 at 12:27:13.
BEGIN options
  PRINT_OPTION  summary
  COMPLEXITY  complex
END options

BEGIN linear
  LINEAR_ACCELERATION  bicgstab
END linear

