# File generated by Flopy version 3.5.0 on 02/08/2024 at 15:37:08.
BEGIN options
END options

BEGIN dimensions
  MAXBOUND  5000
END dimensions

BEGIN period  1
  1 1 1.56157197E-08
  1 2 1.58431039E-08
  1 3 1.34677186E-08
  1 4 1.13388175E-08
  1 5 9.18148126E-09
  1 6 9.26815269E-09
  1 7 8.68186987E-09
  1 8 1.02264323E-08
  1 9 9.10807391E-09
  1 10 8.16000654E-09
  1 11 5.26601876E-09
  1 12 4.70250730E-09
  1 13 4.96851559E-09
  1 14 7.26626871E-09
  1 15 7.11866748E-09
  1 16 7.51306895E-09
  1 17 8.74650596E-09
  1 18 9.68394190E-09
  1 19 9.45463273E-09
  1 20 9.77711130E-09
  1 21 9.16236706E-09
  1 22 6.41582822E-09
  1 23 5.06151439E-09
  1 24 4.31931646E-09
  1 25 3.61878342E-09
  1 26 4.02102102E-09
  1 27 7.05043824E-09
  1 28 7.97461030E-09
  1 29 7.10482461E-09
  1 30 5.67592117E-09
  1 31 5.69650259E-09
  1 32 5.69182206E-09
  1 33 6.84119493E-09
  1 34 7.93626460E-09
  1 35 1.02078826E-08
  1 36 1.02605714E-08
  1 37 9.01339022E-09
  1 38 7.73042991E-09
  1 39 8.99750752E-09
  1 40 7.55630728E-09
  1 41 6.14948701E-09
  1 42 5.53989817E-09
  1 43 5.85637149E-09
  1 44 3.91520262E-09
  1 45 3.63401941E-09
  1 46 2.52425782E-09
  1 47 2.59330310E-10
  1 48 7.96382353E-10
  1 49 1.07787910E-09
  1 50 2.93513893E-09
  1 51 3.19399239E-09
  1 52 4.19826430E-09
  1 53 4.36701931E-09
  1 54 5.27302746E-09
  1 55 4.00575165E-09
  1 56 3.75622411E-09
  1 57 2.67092149E-09
  1 58 3.42872424E-09
  1 59 2.11153662E-09
  1 60 4.34255256E-09
  1 61 6.64738223E-09
  1 62 8.28231057E-09
  1 63 6.89572765E-09
  1 64 7.26340192E-09
  1 65 6.59488800E-09
  1 66 6.46621419E-09
  1 67 7.61105582E-09
  1 68 8.79139577E-09
  1 69 9.14620832E-09
  1 70 1.06220428E-08
  1 71 1.30250115E-08
  1 72 1.24928330E-08
  1 73 1.17050463E-08
  1 74 1.09110287E-08
  1 75 1.15173287E-08
  1 76 1.20929003E-08
  1 77 1.42835423E-08
  1 78 1.52369002E-08
  1 79 1.66047549E-08
  1 80 1.66962431E-08
  1 81 1.72883314E-08
  1 82 1.83352484E-08
  1 83 2.04320566E-08
  1 84 2.01826897E-08
  1 85 2.02293648E-08
  1 86 2.03213366E-08
  1 87 2.06978088E-08
  1 88 2.09946616E-08
  1 89 2.26000680E-08
  1 90 2.03738254E-08
  1 91 1.64602216E-08
  1 92 1.42305290E-08
  1 93 1.43967443E-08
  1 94 1.30367505E-08
  1 95 1.27080234E-08
  1 96 1.30853839E-08
  1 97 1.26694713E-08
  1 98 1.16817628E-08
  1 99 1.15625534E-08
  1 100 1.24428142E-08
  1 101 1.07248514E-08
  1 102 8.89164798E-09
  1 103 8.06461922E-09
  1 104 1.05753134E-08
  1 105 1.11089609E-08
  1 106 9.45690439E-09
  1 107 7.50658453E-09
  1 108 7.04800698E-09
  1 109 5.79195890E-09
  1 110 6.26945858E-09
  1 111 6.32571706E-09
  1 112 5.47906272E-09
  1 113 5.08639220E-09
  1 114 7.78091672E-09
  1 115 9.66098406E-09
  1 116 1.08948011E-08
  1 117 1.15901733E-08
  1 118 1.10084255E-08
  1 119 8.93495431E-09
  1 120 7.04629638E-09
  1 121 6.26663280E-09
  1 122 5.57383261E-09
  1 123 6.33979908E-09
  1 124 6.20711351E-09
  1 125 7.70942498E-09
  1 126 7.92067164E-09
  1 127 7.71414078E-09
  1 128 5.04379625E-09
  1 129 5.86647905E-09
  1 130 6.34795959E-09
  1 131 8.92494666E-09
  1 132 1.05880119E-08
  1 133 1.13070051E-08
  1 134 7.89692826E-09
  1 135 7.08031420E-09
  1 136 7.94878375E-09
  1 137 7.73662900E-09
  1 138 6.31074714E-09
  1 139 6.05682183E-09
  1 140 6.15776334E-09
  1 141 5.03057428E-09
  1 142 5.40156343E-09
  1 143 4.90007738E-09
  1 144 4.26594048E-09
  1 145 1.71729310E-09
  1 146 1.68677594E-09
  1 147 3.30392105E-09
  1 148 7.22434504E-09
  1 149 7.69743084E-09
  1 150 7.57261327E-09
  1 151 6.51702519E-09
  1 152 5.66614634E-09
  1 153 4.22499176E-09
  1 154 5.18739537E-09
  1 155 4.54664996E-09
  1 156 2.68521937E-09
  1 157 2.93545054E-09
  1 158 6.16614198E-09
  1 159 7.40643583E-09
  1 160 7.41023434E-09
  1 161 7.51228172E-09
  1 162 7.41265659E-09
  1 163 6.90547374E-09
  1 164 8.15767173E-09
  1 165 1.04241508E-08
  1 166 1.22065549E-08
  1 167 1.24074307E-08
  1 168 1.13866313E-08
  1 169 1.14277027E-08
  1 170 1.19677694E-08
  1 171 1.22043380E-08
  1 172 1.14956163E-08
  1 173 1.26068571E-08
  1 174 1.27111454E-08
  1 175 1.44834358E-08
  1 176 1.61173358E-08
  1 177 1.80518499E-08
  1 178 1.70367147E-08
  1 179 1.87798390E-08
  1 180 1.94628529E-08
  1 181 2.00122687E-08
  1 182 1.96374215E-08
  1 183 2.15437787E-08
  1 184 2.15025520E-08
  1 185 2.15439903E-08
  1 186 2.16820316E-08
  1 187 2.13643454E-08
  1 188 2.00241460E-08
  1 189 1.79777301E-08
  1 190 1.62880821E-08
  1 191 1.41084860E-08
  1 192 1.40507247E-08
  1 193 1.31074642E-08
  1 194 1.34715336E-08
  1 195 1.23304677E-08
  1 196 1.25697095E-08
  1 197 1.22377996E-08
  1 198 1.35865734E-08
  1 199 1.14021810E-08
  1 200 9.64578567E-09
  1 201 8.40535685E-09
  1 202 9.51042719E-09
  1 203 7.47939906E-09
  1 204 7.44443416E-09
  1 205 6.50471770E-09
  1 206 4.95637807E-09
  1 207 3.44887230E-09
  1 208 3.60757858E-09
  1 209 3.88908037E-09
  1 210 3.46449542E-09
  1 211 4.14475693E-09
  1 212 5.77276924E-09
  1 213 9.90302650E-09
  1 214 1.14080964E-08
  1 215 1.16605392E-08
  1 216 9.37216074E-09
  1 217 8.12004309E-09
  1 218 5.58867911E-09
  1 219 6.63540940E-09
  1 220 7.19318332E-09
  1 221 7.62801829E-09
  1 222 6.89009162E-09
  1 223 7.56888509E-09
  1 224 6.02737630E-09
  1 225 5.27866215E-09
  1 226 6.40993263E-09
  1 227 7.96841988E-09
  1 228 8.19590375E-09
  1 229 8.94866918E-09
  1 230 9.63305547E-09
  1 231 8.76438034E-09
  1 232 7.55014873E-09
  1 233 6.08075164E-09
  1 234 4.85955524E-09
  1 235 4.27081259E-09
  1 236 4.85027547E-09
  1 237 5.23712269E-09
  1 238 6.02905497E-09
  1 239 5.82689588E-09
  1 240 5.50284873E-09
  1 241 4.75099205E-09
  1 242 4.21916988E-09
  1 243 3.24296929E-09
  1 244 5.76877349E-09
  1 245 7.93822202E-09
  1 246 8.16555181E-09
  1 247 6.58111316E-09
  1 248 7.71017837E-09
  1 249 6.33506254E-09
  1 250 4.85159550E-09
  1 251 3.83661989E-09
  1 252 4.74689463E-09
  1 253 3.84223713E-09
  1 254 4.69146209E-09
  1 255 6.00094259E-09
  1 256 7.25291505E-09
  1 257 7.45966684E-09
  1 258 7.40454702E-09
  1 259 7.96689464E-09
  1 260 8.56922725E-09
  1 261 1.00058304E-08
  1 262 1.06151133E-08
  1 263 1.28517503E-08
  1 264 1.21382790E-08
  1 265 1.18226832E-08
  1 266 1.16267043E-08
  1 267 1.31886733E-08
  1 268 1.06033504E-08
  1 269 1.04279302E-08
  1 270 1.17817232E-08
  1 271 1.38374961E-08
  1 272 1.35266246E-08
  1 273 1.52192771E-08
  1 274 1.64943682E-08
  1 275 1.75894696E-08
  1 276 1.89045740E-08
  1 277 2.02197261E-08
  1 278 2.07031449E-08
  1 279 2.07746389E-08
  1 280 2.13973030E-08
  1 281 2.18796557E-08
  1 282 2.34596110E-08
  1 283 2.36638024E-08
  1 284 2.33399217E-08
  1 285 2.21168440E-08
  1 286 2.08573038E-08
  1 287 1.87413595E-08
  1 288 1.84303575E-08
  1 289 1.66272028E-08
  1 290 1.35455396E-08
  1 291 1.16453551E-08
  1 292 1.32255517E-08
  1 293 1.36097844E-08
  1 294 1.40354513E-08
  1 295 1.35241672E-08
  1 296 1.24046027E-08
  1 297 1.03669454E-08
  1 298 1.14725752E-08
  1 299 1.19572344E-08
  1 300 1.24847192E-08
  1 301 5.42013831E-09
  1 302 4.74783940E-09
  1 303 5.12093880E-09
  1 304 4.22491621E-09
  1 305 3.15760521E-09
  1 306 1.85592358E-09
  1 307 2.01659607E-09
  1 308 2.07705393E-09
  1 309 5.30963716E-09
  1 310 9.00539022E-09
  1 311 1.01205542E-08
  1 312 8.51593755E-09
  1 313 9.17598487E-09
  1 314 8.69426014E-09
  1 315 7.18643853E-09
  1 316 6.38351346E-09
  1 317 7.87194823E-09
  1 318 7.41133398E-09
  1 319 7.34974686E-09
  1 320 6.73770631E-09
  1 321 6.49675339E-09
  1 322 5.51055293E-09
  1 323 5.97042264E-09
  1 324 6.14167036E-09
  1 325 7.57061054E-09
  1 326 8.63653209E-09
  1 327 8.74134409E-09
  1 328 8.18446062E-09
  1 329 6.78502026E-09
  1 330 5.22535977E-09
  1 331 4.18762936E-09
  1 332 5.05097828E-09
  1 333 3.68207535E-09
  1 334 4.41026374E-09
  1 335 5.76719567E-09
  1 336 7.52492173E-09
  1 337 5.59501310E-09
  1 338 5.90100587E-09
  1 339 4.80719776E-09
  1 340 5.23099838E-09
  1 341 5.97457440E-09
  1 342 8.22268609E-09
  1 343 7.27420158E-09
  1 344 6.35643095E-09
  1 345 5.19526839E-09
  1 346 4.08338682E-09
  1 347 3.63251861E-09
  1 348 4.12887687E-09
  1 349 4.85348643E-09
  1 350 4.42631346E-09
  1 351 4.83799205E-09
  1 352 5.43995699E-09
  1 353 8.35452244E-09
  1 354 8.89003768E-09
  1 355 7.92309796E-09
  1 356 7.14463412E-09
  1 357 9.78900254E-09
  1 358 1.05579641E-08
  1 359 1.15326912E-08
  1 360 1.25868189E-08
  1 361 1.30045996E-08
  1 362 1.13028292E-08
  1 363 1.20099660E-08
  1 364 1.26407426E-08
  1 365 1.19501064E-08
  1 366 1.06688100E-08
  1 367 1.13527572E-08
  1 368 1.18034421E-08
  1 369 1.30676361E-08
  1 370 1.43434140E-08
  1 371 1.59452867E-08
  1 372 1.64923089E-08
  1 373 1.71626312E-08
  1 374 1.85896713E-08
  1 375 2.15685093E-08
  1 376 2.26821696E-08
  1 377 2.11036837E-08
  1 378 2.13379803E-08
  1 379 2.33241385E-08
  1 380 2.43942100E-08
  1 381 2.33012489E-08
  1 382 2.37006808E-08
  1 383 2.17096643E-08
  1 384 2.01665134E-08
  1 385 1.83596089E-08
  1 386 1.78697206E-08
  1 387 1.42593455E-08
  1 388 1.31089355E-08
  1 389 1.22741184E-08
  1 390 1.36640462E-08
  1 391 1.41755718E-08
  1 392 1.51502213E-08
  1 393 1.36620107E-08
  1 394 1.22909015E-08
  1 395 1.15807966E-08
  1 396 1.25324377E-08
  1 397 1.44684516E-08
  1 398 1.40240281E-08
  1 399 1.21454047E-08
  1 400 1.07397802E-08
  1 401 4.99628046E-09
  1 402 2.62460977E-09
  1 403 2.13880803E-09
  1 404 1.57992232E-09
  1 405 2.27655776E-09
  1 406 3.67094177E-09
  1 407 8.10556101E-09
  1 408 8.55838163E-09
  1 409 8.66611503E-09
  1 410 7.87378271E-09
  1 411 8.56177496E-09
  1 412 7.57409018E-09
  1 413 8.26636710E-09
  1 414 8.16168416E-09
  1 415 7.87495204E-09
  1 416 6.58595582E-09
  1 417 5.79990906E-09
  1 418 6.33021830E-09
  1 419 5.93158534E-09
  1 420 4.40502892E-09
  1 421 3.17473167E-09
  1 422 5.89347203E-09
  1 423 6.70657126E-09
  1 424 7.04039225E-09
  1 425 6.71507980E-09
  1 426 7.42761399E-09
  1 427 5.04827330E-09
  1 428 4.87499866E-09
  1 429 5.11469833E-09
  1 430 5.90770127E-09
  1 431 5.72380772E-09
  1 432 7.04936175E-09
  1 433 6.91164071E-09
  1 434 6.71955257E-09
  1 435 6.61020548E-09
  1 436 6.87218775E-09
  1 437 6.75157816E-09
  1 438 7.22703375E-09
  1 439 7.69679644E-09
  1 440 7.86936491E-09
  1 441 6.64932727E-09
  1 442 4.03093225E-09
  1 443 2.68093394E-09
  1 444 3.72366229E-09
  1 445 4.67760702E-09
  1 446 4.58237806E-09
  1 447 5.30907638E-09
  1 448 5.56584999E-09
  1 449 6.21994890E-09
  1 450 7.84684540E-09
  1 451 9.92156588E-09
  1 452 8.97910324E-09
  1 453 9.27509868E-09
  1 454 9.65913393E-09
  1 455 1.09050014E-08
  1 456 1.13318921E-08
  1 457 1.40985417E-08
  1 458 1.36834561E-08
  1 459 1.26611823E-08
  1 460 1.12523017E-08
  1 461 1.28235544E-08
  1 462 1.34156749E-08
  1 463 1.35051810E-08
  1 464 1.21252767E-08
  1 465 1.24971080E-08
  1 466 1.41036595E-08
  1 467 1.49455321E-08
  1 468 1.60640687E-08
  1 469 1.70359987E-08
  1 470 1.79502460E-08
  1 471 1.79078222E-08
  1 472 2.15322407E-08
  1 473 2.30626875E-08
  1 474 2.31963217E-08
  1 475 2.19909720E-08
  1 476 2.33964167E-08
  1 477 2.22376312E-08
  1 478 2.27451591E-08
  1 479 2.32598669E-08
  1 480 2.32243685E-08
  1 481 1.99007248E-08
  1 482 1.77829780E-08
  1 483 1.66828052E-08
  1 484 1.63681794E-08
  1 485 1.50329295E-08
  1 486 1.37176408E-08
  1 487 1.43760594E-08
  1 488 1.59332467E-08
  1 489 1.61494229E-08
  1 490 1.53864479E-08
  1 491 1.55694999E-08
  1 492 1.44851453E-08
  1 493 1.36436733E-08
  1 494 1.40666981E-08
  1 495 1.42611092E-08
  1 496 1.23516069E-08
  1 497 1.23666346E-08
  1 498 1.30857995E-08
  1 499 1.33020256E-08
  1 500 1.27426314E-08
  1 501 3.15235074E-09
  1 502 2.48195019E-09
  1 503 4.20265953E-09
  1 504 7.01018417E-09
  1 505 9.37623240E-09
  1 506 9.66918234E-09
  1 507 9.24278870E-09
  1 508 9.58812009E-09
  1 509 1.03464498E-08
  1 510 1.00963427E-08
  1 511 8.49166788E-09
  1 512 8.36692378E-09
  1 513 7.72635167E-09
  1 514 6.41007867E-09
  1 515 5.61202323E-09
  1 516 5.82387480E-09
  1 517 3.81105030E-09
  1 518 3.11442841E-09
  1 519 4.34748048E-09
  1 520 5.49097292E-09
  1 521 4.94667391E-09
  1 522 6.57691174E-09
  1 523 7.17145283E-09
  1 524 6.57620756E-09
  1 525 5.33414413E-09
  1 526 6.82063942E-09
  1 527 7.51109353E-09
  1 528 8.39003625E-09
  1 529 7.41098047E-09
  1 530 7.88254034E-09
  1 531 7.84988976E-09
  1 532 7.78045203E-09
  1 533 7.03614841E-09
  1 534 8.95655492E-09
  1 535 1.02152738E-08
  1 536 9.30412088E-09
  1 537 8.29325354E-09
  1 538 7.02628083E-09
  1 539 5.34335962E-09
  1 540 4.18868793E-09
  1 541 6.04483440E-09
  1 542 5.37962211E-09
  1 543 5.45839225E-09
  1 544 5.52058739E-09
  1 545 7.34226021E-09
  1 546 6.89190784E-09
  1 547 8.97039393E-09
  1 548 9.53544728E-09
  1 549 1.03539397E-08
  1 550 9.42351860E-09
  1 551 9.94062002E-09
  1 552 1.05969847E-08
  1 553 1.26989581E-08
  1 554 1.30286666E-08
  1 555 1.20790810E-08
  1 556 1.16674943E-08
  1 557 1.14822714E-08
  1 558 1.19197472E-08
  1 559 1.28109013E-08
  1 560 1.38108142E-08
  1 561 1.30332203E-08
  1 562 1.45795904E-08
  1 563 1.60200713E-08
  1 564 1.63887509E-08
  1 565 1.60702805E-08
  1 566 1.78902927E-08
  1 567 1.78298400E-08
  1 568 1.83556636E-08
  1 569 2.04871259E-08
  1 570 2.31863872E-08
  1 571 2.26394854E-08
  1 572 2.17732282E-08
  1 573 2.08143785E-08
  1 574 2.15173139E-08
  1 575 2.19212479E-08
  1 576 2.21641576E-08
  1 577 2.05738092E-08
  1 578 1.94182143E-08
  1 579 1.71385395E-08
  1 580 1.63871801E-08
  1 581 1.61440534E-08
  1 582 1.51188039E-08
  1 583 1.29340150E-08
  1 584 1.38801253E-08
  1 585 1.57879228E-08
  1 586 1.54772019E-08
  1 587 1.56450491E-08
  1 588 1.61661189E-08
  1 589 1.53947600E-08
  1 590 1.28119830E-08
  1 591 1.35529172E-08
  1 592 1.32390069E-08
  1 593 1.30240155E-08
  1 594 1.15114298E-08
  1 595 1.33158207E-08
  1 596 1.44134418E-08
  1 597 1.60272280E-08
  1 598 1.34830523E-08
  1 599 1.13330998E-08
  1 600 9.44968565E-09
  1 601 6.84551980E-09
  1 602 8.61853596E-09
  1 603 9.72407306E-09
  1 604 9.02618654E-09
  1 605 9.69054027E-09
  1 606 1.15157430E-08
  1 607 1.08369701E-08
  1 608 8.52930840E-09
  1 609 6.98873820E-09
  1 610 6.48009555E-09
  1 611 4.73492395E-09
  1 612 5.93083093E-09
  1 613 5.91793287E-09
  1 614 4.76938139E-09
  1 615 1.76105006E-09
  1 616 2.92632800E-09
  1 617 4.10772179E-09
  1 618 6.61651599E-09
  1 619 5.97322174E-09
  1 620 5.57745153E-09
  1 621 4.74948535E-09
  1 622 6.10274283E-09
  1 623 7.33035511E-09
  1 624 9.38485752E-09
  1 625 9.40341258E-09
  1 626 7.18153214E-09
  1 627 6.80622034E-09
  1 628 8.06825125E-09
  1 629 8.83313562E-09
  1 630 8.46664477E-09
  1 631 1.07781478E-08
  1 632 1.05723983E-08
  1 633 9.39660418E-09
  1 634 8.35675622E-09
  1 635 9.37473312E-09
  1 636 7.45611395E-09
  1 637 6.15958802E-09
  1 638 5.56014432E-09
  1 639 7.14437165E-09
  1 640 7.89826696E-09
  1 641 8.39629390E-09
  1 642 7.84967413E-09
  1 643 8.69089973E-09
  1 644 9.31882668E-09
  1 645 1.01824615E-08
  1 646 1.09057063E-08
  1 647 1.10128989E-08
  1 648 9.53616818E-09
  1 649 1.01240018E-08
  1 650 1.19457745E-08
  1 651 1.23888656E-08
  1 652 1.16270112E-08
  1 653 1.14784920E-08
  1 654 1.02163890E-08
  1 655 9.10031770E-09
  1 656 1.12647767E-08
  1 657 1.42192907E-08
  1 658 1.57841621E-08
  1 659 1.55838762E-08
  1 660 1.62428941E-08
  1 661 1.61754449E-08
  1 662 1.79773560E-08
  1 663 1.80890003E-08
  1 664 1.84700136E-08
  1 665 1.76559843E-08
  1 666 1.95868011E-08
  1 667 2.05485436E-08
  1 668 2.26873812E-08
  1 669 2.19509418E-08
  1 670 2.13477059E-08
  1 671 2.07844929E-08
  1 672 2.17470173E-08
  1 673 2.15962632E-08
  1 674 2.21702662E-08
  1 675 2.22009266E-08
  1 676 1.90057879E-08
  1 677 1.61614735E-08
  1 678 1.55404508E-08
  1 679 1.61685485E-08
  1 680 1.39697431E-08
  1 681 1.36560742E-08
  1 682 1.30070032E-08
  1 683 1.41177589E-08
  1 684 1.50061961E-08
  1 685 1.74643316E-08
  1 686 1.63434353E-08
  1 687 1.46689936E-08
  1 688 1.23560943E-08
  1 689 1.24491931E-08
  1 690 1.27967770E-08
  1 691 1.38171637E-08
  1 692 1.46450069E-08
  1 693 1.64258652E-08
  1 694 1.61517285E-08
  1 695 1.38434414E-08
  1 696 1.28165908E-08
  1 697 1.32911595E-08
  1 698 1.24952053E-08
  1 699 1.24490209E-08
  1 700 1.53273723E-08
  1 701 1.08772553E-08
  1 702 1.10936936E-08
  1 703 1.02955943E-08
  1 704 1.05375124E-08
  1 705 8.58583257E-09
  1 706 7.89110362E-09
  1 707 5.62576444E-09
  1 708 5.35405451E-09
  1 709 5.10480305E-09
  1 710 5.68153859E-09
  1 711 4.82357636E-09
  1 712 4.63105566E-09
  1 713 4.20977736E-09
  1 714 5.10576668E-09
  1 715 6.03693421E-09
  1 716 5.71857393E-09
  1 717 5.37918993E-09
  1 718 6.59384253E-09
  1 719 7.39322915E-09
  1 720 7.39272363E-09
  1 721 9.31308419E-09
  1 722 1.07968408E-08
  1 723 9.64067238E-09
  1 724 8.14372073E-09
  1 725 8.86277771E-09
  1 726 9.41999341E-09
  1 727 1.06756712E-08
  1 728 1.21448826E-08
  1 729 1.29069078E-08
  1 730 1.11161824E-08
  1 731 1.01128573E-08
  1 732 8.82227567E-09
  1 733 9.02016504E-09
  1 734 8.24412182E-09
  1 735 8.89863499E-09
  1 736 8.95276193E-09
  1 737 1.00422476E-08
  1 738 8.85025410E-09
  1 739 1.03086688E-08
  1 740 1.23496576E-08
  1 741 1.28107512E-08
  1 742 1.01279094E-08
  1 743 1.00504052E-08
  1 744 1.09412263E-08
  1 745 1.07918355E-08
  1 746 1.16554191E-08
  1 747 1.29521625E-08
  1 748 1.31713574E-08
  1 749 1.13683010E-08
  1 750 1.16720795E-08
  1 751 1.09121511E-08
  1 752 1.18611555E-08
  1 753 1.20266068E-08
  1 754 1.41766558E-08
  1 755 1.48694244E-08
  1 756 1.69714035E-08
  1 757 1.69464328E-08
  1 758 1.79477793E-08
  1 759 1.71002484E-08
  1 760 1.61615012E-08
  1 761 1.60786358E-08
  1 762 1.87720167E-08
  1 763 1.98336150E-08
  1 764 1.96267627E-08
  1 765 2.07151593E-08
  1 766 2.16027614E-08
  1 767 2.16730158E-08
  1 768 2.23436581E-08
  1 769 2.39331670E-08
  1 770 2.36198410E-08
  1 771 2.37405165E-08
  1 772 2.32924518E-08
  1 773 2.20268720E-08
  1 774 1.99502790E-08
  1 775 1.88792214E-08
  1 776 1.61482847E-08
  1 777 1.37303354E-08
  1 778 1.23411539E-08
  1 779 1.33691999E-08
  1 780 1.46288120E-08
  1 781 1.63557522E-08
  1 782 1.61828066E-08
  1 783 1.69891738E-08
  1 784 1.64192894E-08
  1 785 1.48655067E-08
  1 786 1.25927535E-08
  1 787 1.35487084E-08
  1 788 1.34733303E-08
  1 789 1.41880247E-08
  1 790 1.56608556E-08
  1 791 1.66851741E-08
  1 792 1.46529241E-08
  1 793 1.36644485E-08
  1 794 1.40102704E-08
  1 795 1.39288374E-08
  1 796 1.54682690E-08
  1 797 1.75966954E-08
  1 798 1.89932631E-08
  1 799 1.76682283E-08
  1 800 1.88663392E-08
  1 801 1.09343504E-08
  1 802 1.00921277E-08
  1 803 6.74657944E-09
  1 804 4.81082717E-09
  1 805 4.89018696E-09
  1 806 6.07853745E-09
  1 807 4.44939050E-09
  1 808 4.37208621E-09
  1 809 4.24617075E-09
  1 810 4.19409253E-09
  1 811 4.34080078E-09
  1 812 6.27536888E-09
  1 813 5.91390679E-09
  1 814 4.79806312E-09
  1 815 5.19413582E-09
  1 816 6.54634118E-09
  1 817 8.91963146E-09
  1 818 1.08498563E-08
  1 819 1.13977490E-08
  1 820 8.68862876E-09
  1 821 8.50867673E-09
  1 822 9.13747888E-09
  1 823 1.21698922E-08
  1 824 1.28835622E-08
  1 825 1.38176215E-08
  1 826 1.27865931E-08
  1 827 1.38523954E-08
  1 828 1.23091739E-08
  1 829 1.12614728E-08
  1 830 1.03702127E-08
  1 831 1.02070961E-08
  1 832 8.61545246E-09
  1 833 9.49046907E-09
  1 834 1.15468433E-08
  1 835 1.17270497E-08
  1 836 1.20294049E-08
  1 837 1.27986789E-08
  1 838 1.27656569E-08
  1 839 1.09690775E-08
  1 840 1.13531363E-08
  1 841 1.08554453E-08
  1 842 1.08875366E-08
  1 843 1.14922054E-08
  1 844 1.44075786E-08
  1 845 1.53331457E-08
  1 846 1.48433134E-08
  1 847 1.26154573E-08
  1 848 1.30202380E-08
  1 849 1.44053056E-08
  1 850 1.53214572E-08
  1 851 1.51149230E-08
  1 852 1.68727403E-08
  1 853 1.70247434E-08
  1 854 1.61763957E-08
  1 855 1.62175926E-08
  1 856 1.74831174E-08
  1 857 1.62761072E-08
  1 858 1.62179730E-08
  1 859 1.76750384E-08
  1 860 1.93637789E-08
  1 861 2.03048224E-08
  1 862 2.20779690E-08
  1 863 2.25987128E-08
  1 864 2.20464648E-08
  1 865 2.27688507E-08
  1 866 2.43200638E-08
  1 867 2.61283474E-08
  1 868 2.56618436E-08
  1 869 2.49359751E-08
  1 870 2.35117807E-08
  1 871 2.38456195E-08
  1 872 2.09844269E-08
  1 873 1.88216501E-08
  1 874 1.61076660E-08
  1 875 1.51727995E-08
  1 876 1.32451695E-08
  1 877 1.55559721E-08
  1 878 1.74988871E-08
  1 879 1.89846103E-08
  1 880 1.87578984E-08
  1 881 1.83086204E-08
  1 882 1.59544873E-08
  1 883 1.48295072E-08
  1 884 1.55950985E-08
  1 885 1.50701148E-08
  1 886 1.45845509E-08
  1 887 1.47626722E-08
  1 888 1.63206496E-08
  1 889 1.58134844E-08
  1 890 1.62164903E-08
  1 891 1.57117314E-08
  1 892 1.71724669E-08
  1 893 1.77948111E-08
  1 894 1.91851180E-08
  1 895 1.94478240E-08
  1 896 2.08201859E-08
  1 897 2.04427603E-08
  1 898 2.11603140E-08
  1 899 2.23762392E-08
  1 900 2.28265079E-08
  1 901 6.34817284E-09
  1 902 5.76545719E-09
  1 903 5.26075059E-09
  1 904 4.28637280E-09
  1 905 4.33131445E-09
  1 906 4.31117294E-09
  1 907 4.04483575E-09
  1 908 3.64563227E-09
  1 909 5.22594246E-09
  1 910 4.94937083E-09
  1 911 4.98206511E-09
  1 912 4.14350508E-09
  1 913 6.53440554E-09
  1 914 8.99914155E-09
  1 915 1.10813402E-08
  1 916 9.54524981E-09
  1 917 9.20244919E-09
  1 918 8.65505112E-09
  1 919 9.33127158E-09
  1 920 1.12547882E-08
  1 921 1.48158713E-08
  1 922 1.57783247E-08
  1 923 1.58297650E-08
  1 924 1.59629965E-08
  1 925 1.55268461E-08
  1 926 1.42116147E-08
  1 927 1.34846457E-08
  1 928 1.15232860E-08
  1 929 9.10488699E-09
  1 930 9.32558281E-09
  1 931 1.16981947E-08
  1 932 1.30560932E-08
  1 933 1.30903579E-08
  1 934 1.30611047E-08
  1 935 1.26195015E-08
  1 936 1.24482901E-08
  1 937 1.14933828E-08
  1 938 1.15441376E-08
  1 939 1.20021881E-08
  1 940 1.38310987E-08
  1 941 1.42746543E-08
  1 942 1.63353308E-08
  1 943 1.60512661E-08
  1 944 1.53976335E-08
  1 945 1.44311807E-08
  1 946 1.66271966E-08
  1 947 1.63489702E-08
  1 948 1.69763702E-08
  1 949 1.74273402E-08
  1 950 1.71981017E-08
  1 951 1.48007856E-08
  1 952 1.52443514E-08
  1 953 1.69638719E-08
  1 954 1.68734512E-08
  1 955 1.65284625E-08
  1 956 1.73040354E-08
  1 957 2.01342948E-08
  1 958 2.14285433E-08
  1 959 2.26355519E-08
  1 960 2.19179740E-08
  1 961 2.30973199E-08
  1 962 2.24983981E-08
  1 963 2.35354961E-08
  1 964 2.44483895E-08
  1 965 2.61170053E-08
  1 966 2.43521966E-08
  1 967 2.42297497E-08
  1 968 2.39726160E-08
  1 969 2.26412297E-08
  1 970 2.00293597E-08
  1 971 1.89004731E-08
  1 972 1.64678276E-08
  1 973 1.40468040E-08
  1 974 1.48988632E-08
  1 975 1.74742463E-08
  1 976 1.85977342E-08
  1 977 1.81730961E-08
  1 978 1.76811754E-08
  1 979 1.68128549E-08
  1 980 1.65019573E-08
  1 981 1.57815826E-08
  1 982 1.55109766E-08
  1 983 1.55975246E-08
  1 984 1.59419354E-08
  1 985 1.54447714E-08
  1 986 1.65762720E-08
  1 987 1.72566448E-08
  1 988 1.77305476E-08
  1 989 1.77158048E-08
  1 990 1.86820734E-08
  1 991 1.77063672E-08
  1 992 1.90328086E-08
  1 993 2.02949204E-08
  1 994 2.08899253E-08
  1 995 1.96478832E-08
  1 996 2.12919220E-08
  1 997 2.11543658E-08
  1 998 2.03619822E-08
  1 999 1.93867060E-08
  1 1000 1.97601819E-08
  1 1001 4.65808718E-09
  1 1002 3.34176197E-09
  1 1003 2.92955290E-09
  1 1004 3.15242576E-09
  1 1005 3.77826153E-09
  1 1006 2.82473376E-09
  1 1007 2.91001581E-09
  1 1008 3.10301138E-09
  1 1009 3.44849452E-09
  1 1010 4.17035704E-09
  1 1011 7.83277296E-09
  1 1012 8.81861758E-09
  1 1013 8.25297476E-09
  1 1014 7.10529889E-09
  1 1015 7.50203870E-09
  1 1016 6.77222017E-09
  1 1017 9.97271314E-09
  1 1018 1.38357174E-08
  1 1019 1.62710166E-08
  1 1020 1.59295447E-08
  1 1021 1.67908654E-08
  1 1022 1.71908974E-08
  1 1023 1.66259472E-08
  1 1024 1.43413835E-08
  1 1025 1.07519276E-08
  1 1026 9.03734053E-09
  1 1027 8.72517427E-09
  1 1028 1.04585120E-08
  1 1029 1.16964674E-08
  1 1030 1.39776205E-08
  1 1031 1.27070769E-08
  1 1032 1.27646008E-08
  1 1033 1.24209819E-08
  1 1034 1.34499116E-08
  1 1035 1.28864900E-08
  1 1036 1.48005788E-08
  1 1037 1.43213339E-08
  1 1038 1.41718388E-08
  1 1039 1.49624977E-08
  1 1040 1.64520807E-08
  1 1041 1.50520390E-08
  1 1042 1.43690038E-08
  1 1043 1.56223761E-08
  1 1044 1.66486192E-08
  1 1045 1.72791021E-08
  1 1046 1.68473918E-08
  1 1047 1.59074702E-08
  1 1048 1.45169455E-08
  1 1049 1.51092664E-08
  1 1050 1.54689496E-08
  1 1051 1.65804446E-08
  1 1052 1.66289551E-08
  1 1053 1.74376324E-08
  1 1054 1.89885801E-08
  1 1055 2.15126411E-08
  1 1056 2.13782797E-08
  1 1057 2.17468146E-08
  1 1058 2.23611109E-08
  1 1059 2.22640911E-08
  1 1060 2.14427023E-08
  1 1061 2.41203878E-08
  1 1062 2.52373768E-08
  1 1063 2.38610234E-08
  1 1064 2.21892118E-08
  1 1065 2.34124884E-08
  1 1066 2.29629335E-08
  1 1067 2.17599894E-08
  1 1068 1.90539206E-08
  1 1069 1.65821521E-08
  1 1070 1.44603352E-08
  1 1071 1.44589449E-08
  1 1072 1.54425354E-08
  1 1073 1.65812930E-08
  1 1074 1.67725642E-08
  1 1075 1.56733516E-08
  1 1076 1.66084837E-08
  1 1077 1.69341851E-08
  1 1078 1.68172768E-08
  1 1079 1.57574023E-08
  1 1080 1.72680686E-08
  1 1081 1.57980222E-08
  1 1082 1.61649082E-08
  1 1083 1.74101597E-08
  1 1084 1.95445069E-08
  1 1085 1.73715991E-08
  1 1086 1.70437946E-08
  1 1087 1.70587252E-08
  1 1088 1.82966133E-08
  1 1089 1.89689767E-08
  1 1090 2.01132588E-08
  1 1091 2.03277773E-08
  1 1092 2.08636949E-08
  1 1093 2.18723283E-08
  1 1094 2.17597842E-08
  1 1095 2.17980106E-08
  1 1096 2.06742698E-08
  1 1097 2.03043853E-08
  1 1098 1.98977216E-08
  1 1099 2.09280130E-08
  1 1100 2.03327870E-08
  1 1101 4.75188347E-09
  1 1102 3.56377970E-09
  1 1103 2.81838240E-09
  1 1104 2.47543186E-09
  1 1105 4.70194077E-09
  1 1106 3.18389737E-09
  1 1107 3.94048481E-09
  1 1108 6.66735829E-09
  1 1109 9.89278076E-09
  1 1110 9.34366571E-09
  1 1111 8.24490674E-09
  1 1112 7.07570558E-09
  1 1113 7.29515725E-09
  1 1114 9.88398371E-09
  1 1115 1.31253938E-08
  1 1116 1.63428592E-08
  1 1117 1.70271689E-08
  1 1118 1.71660600E-08
  1 1119 1.67196000E-08
  1 1120 1.76730975E-08
  1 1121 1.51161538E-08
  1 1122 1.22630802E-08
  1 1123 9.77109969E-09
  1 1124 9.28793572E-09
  1 1125 9.12477607E-09
  1 1126 1.29539035E-08
  1 1127 1.56330252E-08
  1 1128 1.48607104E-08
  1 1129 1.26696922E-08
  1 1130 1.39654696E-08
  1 1131 1.58956140E-08
  1 1132 1.76466560E-08
  1 1133 1.77261385E-08
  1 1134 1.65730295E-08
  1 1135 1.48049457E-08
  1 1136 1.50161925E-08
  1 1137 1.55985436E-08
  1 1138 1.62886479E-08
  1 1139 1.61715790E-08
  1 1140 1.58110777E-08
  1 1141 1.60210475E-08
  1 1142 1.73054364E-08
  1 1143 1.79946519E-08
  1 1144 1.73833866E-08
  1 1145 1.67033462E-08
  1 1146 1.45920207E-08
  1 1147 1.43902901E-08
  1 1148 1.61315104E-08
  1 1149 1.87229574E-08
  1 1150 1.74510649E-08
  1 1151 1.80861494E-08
  1 1152 1.87515623E-08
  1 1153 2.06351484E-08
  1 1154 2.10090884E-08
  1 1155 2.30556405E-08
  1 1156 2.22005760E-08
  1 1157 2.24294072E-08
  1 1158 2.31876938E-08
  1 1159 2.46476954E-08
  1 1160 2.38317379E-08
  1 1161 2.29026196E-08
  1 1162 2.22450538E-08
  1 1163 2.15756837E-08
  1 1164 2.10108324E-08
  1 1165 1.91598475E-08
  1 1166 1.82832421E-08
  1 1167 1.60066049E-08
  1 1168 1.41224441E-08
  1 1169 1.28411661E-08
  1 1170 1.61672444E-08
  1 1171 1.70183570E-08
  1 1172 1.64839757E-08
  1 1173 1.55755017E-08
  1 1174 1.69669397E-08
  1 1175 1.60284524E-08
  1 1176 1.62841454E-08
  1 1177 1.66922867E-08
  1 1178 1.65734052E-08
  1 1179 1.54921897E-08
  1 1180 1.64790544E-08
  1 1181 1.73519998E-08
  1 1182 1.72830054E-08
  1 1183 1.67840738E-08
  1 1184 1.69048251E-08
  1 1185 1.75777104E-08
  1 1186 1.87352215E-08
  1 1187 2.02970240E-08
  1 1188 2.25967247E-08
  1 1189 2.42418924E-08
  1 1190 2.32368148E-08
  1 1191 2.23440618E-08
  1 1192 2.32703072E-08
  1 1193 2.35677137E-08
  1 1194 2.12182426E-08
  1 1195 2.02701922E-08
  1 1196 1.94093724E-08
  1 1197 1.88727129E-08
  1 1198 1.85258754E-08
  1 1199 2.03210734E-08
  1 1200 1.94882920E-08
  1 1201 2.90799769E-09
  1 1202 3.52926473E-09
  1 1203 4.61294191E-09
  1 1204 6.33493418E-09
  1 1205 8.65447976E-09
  1 1206 9.93707609E-09
  1 1207 9.89371017E-09
  1 1208 9.61139778E-09
  1 1209 9.83810888E-09
  1 1210 1.07311083E-08
  1 1211 1.07864436E-08
  1 1212 1.15563116E-08
  1 1213 1.45811431E-08
  1 1214 1.78249042E-08
  1 1215 1.73767128E-08
  1 1216 1.69125529E-08
  1 1217 1.65670774E-08
  1 1218 1.51358048E-08
  1 1219 1.19480857E-08
  1 1220 1.20597736E-08
  1 1221 1.16966872E-08
  1 1222 1.20835759E-08
  1 1223 1.24555255E-08
  1 1224 1.47424274E-08
  1 1225 1.44172353E-08
  1 1226 1.51984420E-08
  1 1227 1.57013618E-08
  1 1228 1.74709868E-08
  1 1229 1.79760229E-08
  1 1230 1.84738147E-08
  1 1231 1.82472436E-08
  1 1232 1.79341081E-08
  1 1233 1.65619436E-08
  1 1234 1.50060978E-08
  1 1235 1.67672150E-08
  1 1236 1.79759461E-08
  1 1237 1.80650699E-08
  1 1238 1.72352428E-08
  1 1239 1.92573595E-08
  1 1240 1.82935864E-08
  1 1241 1.80318556E-08
  1 1242 1.71270072E-08
  1 1243 1.73463446E-08
  1 1244 1.58083012E-08
  1 1245 1.70069895E-08
  1 1246 1.72428044E-08
  1 1247 1.78871458E-08
  1 1248 1.85050835E-08
  1 1249 1.98284373E-08
  1 1250 1.97689713E-08
  1 1251 2.00963015E-08
  1 1252 2.12192136E-08
  1 1253 2.27587075E-08
  1 1254 2.44361527E-08
  1 1255 2.43419816E-08
  1 1256 2.34250869E-08
  1 1257 2.24919919E-08
  1 1258 2.18442914E-08
  1 1259 2.03869066E-08
  1 1260 2.10472647E-08
  1 1261 2.13553651E-08
  1 1262 1.98708494E-08
  1 1263 1.76140458E-08
  1 1264 1.72117178E-08
  1 1265 1.60491054E-08
  1 1266 1.65154459E-08
  1 1267 1.77402276E-08
  1 1268 1.80475598E-08
  1 1269 1.60379215E-08
  1 1270 1.68888375E-08
  1 1271 1.74799752E-08
  1 1272 1.71813076E-08
  1 1273 1.49782585E-08
  1 1274 1.46924674E-08
  1 1275 1.43063611E-08
  1 1276 1.53713700E-08
  1 1277 1.53615935E-08
  1 1278 1.62595547E-08
  1 1279 1.67476565E-08
  1 1280 1.64602638E-08
  1 1281 1.63909066E-08
  1 1282 1.90905690E-08
  1 1283 2.22475059E-08
  1 1284 2.22205015E-08
  1 1285 2.31972952E-08
  1 1286 2.39748449E-08
  1 1287 2.48369534E-08
  1 1288 2.44493835E-08
  1 1289 2.63458101E-08