# File generated by Flopy version 3.5.0 on 01/23/2024 at 15:42:56.
BEGIN options
END options

BEGIN dimensions
  MAXBOUND  5000
END dimensions

BEGIN period  1
  1 1 3.78512977E-09
  1 2 3.25779134E-09
  1 3 3.87465911E-09
  1 4 4.00700536E-09
  1 5 3.50028435E-09
  1 6 3.64934520E-09
  1 7 4.65728314E-09
  1 8 4.72996824E-09
  1 9 4.50283146E-09
  1 10 4.98806718E-09
  1 11 4.67570194E-09
  1 12 3.43719101E-09
  1 13 2.79748785E-09
  1 14 3.10356556E-09
  1 15 3.37658130E-09
  1 16 3.95685625E-09
  1 17 4.32791217E-09
  1 18 4.88537168E-09
  1 19 5.64116385E-09
  1 20 6.82004192E-09
  1 21 7.01781636E-09
  1 22 7.23137119E-09
  1 23 6.64256900E-09
  1 24 6.76634100E-09
  1 25 6.91581221E-09
  1 26 7.68056590E-09
  1 27 7.40629454E-09
  1 28 8.41629653E-09
  1 29 8.82568862E-09
  1 30 8.83279759E-09
  1 31 8.18455997E-09
  1 32 8.30908649E-09
  1 33 7.30994457E-09
  1 34 6.86050963E-09
  1 35 7.91040602E-09
  1 36 9.27122838E-09
  1 37 1.00049171E-08
  1 38 1.00346246E-08
  1 39 9.78580701E-09
  1 40 8.66137595E-09
  1 41 9.30360640E-09
  1 42 9.92737795E-09
  1 43 1.04657193E-08
  1 44 9.25244739E-09
  1 45 9.10601143E-09
  1 46 9.29333046E-09
  1 47 1.10425110E-08
  1 48 1.12033058E-08
  1 49 1.08759510E-08
  1 50 9.84110534E-09
  1 51 8.85268596E-09
  1 52 7.37038152E-09
  1 53 7.80480592E-09
  1 54 8.94569551E-09
  1 55 8.67892375E-09
  1 56 8.02013592E-09
  1 57 8.48593660E-09
  1 58 9.21901977E-09
  1 59 9.33601870E-09
  1 60 9.97585179E-09
  1 61 1.00861430E-08
  1 62 1.01484807E-08
  1 63 1.07750571E-08
  1 64 1.21439431E-08
  1 65 1.21526402E-08
  1 66 1.10630584E-08
  1 67 9.27356084E-09
  1 68 8.82981331E-09
  1 69 9.21400302E-09
  1 70 9.77651394E-09
  1 71 9.57828299E-09
  1 72 9.97231791E-09
  1 73 9.02657734E-09
  1 74 7.71960500E-09
  1 75 7.03310996E-09
  1 76 7.72173920E-09
  1 77 7.00505283E-09
  1 78 6.84057464E-09
  1 79 7.06304552E-09
  1 80 7.64177194E-09
  1 81 7.58866183E-09
  1 82 7.94483362E-09
  1 83 7.34771700E-09
  1 84 6.54127469E-09
  1 85 6.61680842E-09
  1 86 7.05295575E-09
  1 87 7.64315015E-09
  1 88 8.08997249E-09
  1 89 9.39603838E-09
  1 90 1.02289195E-08
  1 91 1.14884070E-08
  1 92 1.08577601E-08
  1 93 1.04014394E-08
  1 94 9.33104386E-09
  1 95 9.20520957E-09
  1 96 8.65318535E-09
  1 97 1.01049184E-08
  1 98 1.08271944E-08
  1 99 1.11321905E-08
  1 100 1.10496522E-08
  1 101 5.08500565E-09
  1 102 4.96646991E-09
  1 103 5.22015707E-09
  1 104 5.29652319E-09
  1 105 4.95453653E-09
  1 106 4.99537325E-09
  1 107 5.61654413E-09
  1 108 5.82776467E-09
  1 109 4.55771047E-09
  1 110 3.56093305E-09
  1 111 2.75862588E-09
  1 112 3.73737859E-09
  1 113 4.06755936E-09
  1 114 4.97441752E-09
  1 115 5.48937267E-09
  1 116 6.85936807E-09
  1 117 6.59415023E-09
  1 118 7.62326060E-09
  1 119 8.44813384E-09
  1 120 8.36826873E-09
  1 121 6.63653615E-09
  1 122 6.42471748E-09
  1 123 6.87342609E-09
  1 124 7.66108288E-09
  1 125 8.65841740E-09
  1 126 8.88659607E-09
  1 127 8.17395692E-09
  1 128 7.40782942E-09
  1 129 7.65716646E-09
  1 130 7.46548959E-09
  1 131 7.94692549E-09
  1 132 8.39477276E-09
  1 133 9.43269167E-09
  1 134 9.85479708E-09
  1 135 1.02988375E-08
  1 136 9.85985612E-09
  1 137 1.00660653E-08
  1 138 9.79768526E-09
  1 139 9.51857257E-09
  1 140 9.33656952E-09
  1 141 9.81880050E-09
  1 142 9.36966773E-09
  1 143 9.63062437E-09
  1 144 1.05953826E-08
  1 145 1.14745485E-08
  1 146 1.11292484E-08
  1 147 1.07821952E-08
  1 148 9.22982340E-09
  1 149 7.78985018E-09
  1 150 7.72238786E-09
  1 151 8.83074907E-09
  1 152 8.72450438E-09
  1 153 8.31290419E-09
  1 154 8.49810600E-09
  1 155 9.00202767E-09
  1 156 9.46900084E-09
  1 157 9.59145732E-09
  1 158 1.02131542E-08
  1 159 1.06208231E-08
  1 160 1.13025397E-08
  1 161 1.11020640E-08
  1 162 1.18634518E-08
  1 163 1.10040885E-08
  1 164 9.57162658E-09
  1 165 7.90781696E-09
  1 166 8.69889251E-09
  1 167 8.75469555E-09
  1 168 9.37214330E-09
  1 169 9.45812090E-09
  1 170 9.02720501E-09
  1 171 7.33214671E-09
  1 172 7.16586373E-09
  1 173 7.57573844E-09
  1 174 7.13485214E-09
  1 175 6.57041663E-09
  1 176 6.66991142E-09
  1 177 7.55532247E-09
  1 178 7.71206490E-09
  1 179 7.92025182E-09
  1 180 7.32016641E-09
  1 181 7.29846886E-09
  1 182 6.27490929E-09
  1 183 6.08135471E-09
  1 184 6.56013663E-09
  1 185 8.18479830E-09
  1 186 8.60900795E-09
  1 187 9.62226535E-09
  1 188 1.03938783E-08
  1 189 1.05714669E-08
  1 190 9.86181247E-09
  1 191 9.77573453E-09
  1 192 9.12327148E-09
  1 193 8.82182626E-09
  1 194 9.51069249E-09
  1 195 1.03889512E-08
  1 196 1.00753818E-08
  1 197 1.00253273E-08
  1 198 1.04545579E-08
  1 199 1.09609546E-08
  1 200 1.12684305E-08
  1 201 4.57824330E-09
  1 202 5.18205256E-09
  1 203 5.05904968E-09
  1 204 5.36852375E-09
  1 205 5.29371501E-09
  1 206 5.78824991E-09
  1 207 4.65596683E-09
  1 208 4.09605461E-09
  1 209 4.42980288E-09
  1 210 5.34921654E-09
  1 211 5.40131326E-09
  1 212 6.35985384E-09
  1 213 7.15478350E-09
  1 214 7.30443910E-09
  1 215 7.60019929E-09
  1 216 8.40113139E-09
  1 217 7.67740020E-09
  1 218 6.22120311E-09
  1 219 5.82184768E-09
  1 220 6.59313762E-09
  1 221 7.42788634E-09
  1 222 8.14280870E-09
  1 223 8.57218858E-09
  1 224 8.52087822E-09
  1 225 8.00137800E-09
  1 226 7.19208892E-09
  1 227 7.61058297E-09
  1 228 8.52508067E-09
  1 229 9.12593480E-09
  1 230 8.91004368E-09
  1 231 9.92437578E-09
  1 232 1.01407080E-08
  1 233 1.04768537E-08
  1 234 1.04111398E-08
  1 235 1.08587318E-08
  1 236 9.80171984E-09
  1 237 1.00449165E-08
  1 238 1.00751873E-08
  1 239 1.02127275E-08
  1 240 1.01207553E-08
  1 241 1.15087097E-08
  1 242 1.21656294E-08
  1 243 1.19640248E-08
  1 244 1.10960194E-08
  1 245 9.85436554E-09
  1 246 9.10650813E-09
  1 247 8.69867444E-09
  1 248 9.04569903E-09
  1 249 8.94427859E-09
  1 250 9.51403334E-09
  1 251 9.00384455E-09
  1 252 9.56565138E-09
  1 253 1.00192572E-08
  1 254 1.09999907E-08
  1 255 1.09778832E-08
  1 256 1.19292688E-08
  1 257 1.17258636E-08
  1 258 1.17331898E-08
  1 259 1.18816784E-08
  1 260 1.15759974E-08
  1 261 9.14514680E-09
  1 262 7.60709954E-09
  1 263 7.92731272E-09
  1 264 8.65965340E-09
  1 265 9.06565930E-09
  1 266 9.45770632E-09
  1 267 9.36524245E-09
  1 268 8.67941405E-09
  1 269 8.40132354E-09
  1 270 8.34020065E-09
  1 271 8.39422409E-09
  1 272 7.85827310E-09
  1 273 7.23496888E-09
  1 274 7.19212469E-09
  1 275 7.97654583E-09
  1 276 7.80719949E-09
  1 277 7.60344298E-09
  1 278 7.21433561E-09
  1 279 6.55350922E-09
  1 280 5.74660310E-09
  1 281 7.43190030E-09
  1 282 8.77668766E-09
  1 283 9.31517505E-09
  1 284 9.47399411E-09
  1 285 1.10498342E-08
  1 286 1.11090115E-08
  1 287 1.10049835E-08
  1 288 1.04932158E-08
  1 289 1.05500744E-08
  1 290 1.01797833E-08
  1 291 1.02979496E-08
  1 292 1.02546779E-08
  1 293 1.04771228E-08
  1 294 1.06723769E-08
  1 295 1.03535609E-08
  1 296 1.07768830E-08
  1 297 1.10301032E-08
  1 298 1.12876020E-08
  1 299 1.09432342E-08
  1 300 1.19296357E-08
  1 301 5.38244972E-09
  1 302 6.36346931E-09
  1 303 6.74740729E-09
  1 304 6.24525638E-09
  1 305 5.17266955E-09
  1 306 6.25677677E-09
  1 307 6.57098499E-09
  1 308 6.53505435E-09
  1 309 6.44699784E-09
  1 310 7.47686375E-09
  1 311 7.79380112E-09
  1 312 8.18277706E-09
  1 313 8.01199393E-09
  1 314 7.40214430E-09
  1 315 6.60722158E-09
  1 316 5.90909193E-09
  1 317 6.56710131E-09
  1 318 7.77784548E-09
  1 319 9.02275547E-09
  1 320 8.70009001E-09
  1 321 9.15511636E-09
  1 322 8.32576529E-09
  1 323 7.90720003E-09
  1 324 7.85371655E-09
  1 325 9.20427530E-09
  1 326 8.39747953E-09
  1 327 8.39193832E-09
  1 328 9.25096421E-09
  1 329 1.05821904E-08
  1 330 1.05808593E-08
  1 331 1.11003761E-08
  1 332 1.14047314E-08
  1 333 1.12786051E-08
  1 334 1.10035522E-08
  1 335 1.08268005E-08
  1 336 1.11575774E-08
  1 337 1.14769190E-08
  1 338 1.18090010E-08
  1 339 1.17644117E-08
  1 340 1.21977430E-08
  1 341 1.14811366E-08
  1 342 1.05970671E-08
  1 343 9.97769059E-09
  1 344 9.99329873E-09
  1 345 9.68570709E-09
  1 346 1.05103687E-08
  1 347 1.07580560E-08
  1 348 1.01831317E-08
  1 349 9.82722782E-09
  1 350 1.11327077E-08
  1 351 1.16400251E-08
  1 352 1.18919777E-08
  1 353 1.18254150E-08
  1 354 1.19951809E-08
  1 355 1.15453362E-08
  1 356 1.16738675E-08
  1 357 1.06371706E-08
  1 358 9.20085347E-09
  1 359 7.64472722E-09
  1 360 7.31978116E-09
  1 361 7.77162282E-09
  1 362 9.10055716E-09
  1 363 9.93324022E-09
  1 364 9.93174441E-09
  1 365 9.70936777E-09
  1 366 9.00673316E-09
  1 367 9.26531426E-09
  1 368 9.67038715E-09
  1 369 9.49527979E-09
  1 370 7.18742136E-09
  1 371 6.84277256E-09
  1 372 7.03821306E-09
  1 373 7.55913461E-09
  1 374 6.81903228E-09
  1 375 7.18167602E-09
  1 376 6.36787312E-09
  1 377 6.59633240E-09
  1 378 7.69482974E-09
  1 379 9.68135700E-09
  1 380 1.03503267E-08
  1 381 1.06653848E-08
  1 382 1.08446894E-08
  1 383 1.11565598E-08
  1 384 1.16035583E-08
  1 385 1.14937433E-08
  1 386 1.14894713E-08
  1 387 1.07412836E-08
  1 388 1.00854121E-08
  1 389 9.83659081E-09
  1 390 1.14349018E-08
  1 391 1.15968432E-08
  1 392 1.08888307E-08
  1 393 1.04658524E-08
  1 394 1.13295945E-08
  1 395 1.10005735E-08
  1 396 1.11327756E-08
  1 397 1.16448591E-08
  1 398 1.21974821E-08
  1 399 1.20992623E-08
  1 400 1.27727410E-08
  1 401 6.40219761E-09
  1 402 6.01109339E-09
  1 403 5.78046268E-09
  1 404 5.67366920E-09
  1 405 5.99109449E-09
  1 406 6.28699287E-09
  1 407 6.92517004E-09
  1 408 7.26178900E-09
  1 409 7.88669810E-09
  1 410 7.58014159E-09
  1 411 7.93199800E-09
  1 412 7.22880421E-09
  1 413 6.32032250E-09
  1 414 6.03013923E-09
  1 415 7.97282230E-09
  1 416 8.78975535E-09
  1 417 8.87650735E-09
  1 418 8.70822875E-09
  1 419 8.62402709E-09
  1 420 7.61399892E-09
  1 421 7.68005575E-09
  1 422 8.14534122E-09
  1 423 8.30843414E-09
  1 424 7.93335457E-09
  1 425 8.34416169E-09
  1 426 8.99829065E-09
  1 427 1.01440432E-08
  1 428 1.09787971E-08
  1 429 1.15659412E-08
  1 430 1.13753207E-08
  1 431 1.07006414E-08
  1 432 1.03072722E-08
  1 433 1.12157474E-08
  1 434 1.19826601E-08
  1 435 1.10413708E-08
  1 436 1.05127880E-08
  1 437 1.07272212E-08
  1 438 1.09269408E-08
  1 439 1.02627841E-08
  1 440 1.11372406E-08
  1 441 1.11295956E-08
  1 442 1.09879693E-08
  1 443 1.04348259E-08
  1 444 1.13267095E-08
  1 445 1.10996556E-08
  1 446 1.13954167E-08
  1 447 1.08541196E-08
  1 448 1.08516560E-08
  1 449 1.06610066E-08
  1 450 1.12723247E-08
  1 451 1.14669116E-08
  1 452 1.13674571E-08
  1 453 1.04952844E-08
  1 454 9.18081616E-09
  1 455 8.80854175E-09
  1 456 8.24724529E-09
  1 457 7.87339358E-09
  1 458 7.79758668E-09
  1 459 9.23066119E-09
  1 460 9.24513160E-09
  1 461 9.58468775E-09
  1 462 9.71892842E-09
  1 463 1.01551815E-08
  1 464 9.43109495E-09
  1 465 9.60796908E-09
  1 466 8.89785842E-09
  1 467 8.06249218E-09
  1 468 7.29347525E-09
  1 469 7.12707361E-09
  1 470 6.32720330E-09
  1 471 6.22055221E-09
  1 472 6.75000548E-09
  1 473 7.45816972E-09
  1 474 7.98062171E-09
  1 475 8.75908870E-09
  1 476 9.78975144E-09
  1 477 1.09445580E-08
  1 478 1.13815257E-08
  1 479 1.13037945E-08
  1 480 1.18699235E-08
  1 481 1.22865073E-08
  1 482 1.15929589E-08
  1 483 1.08821671E-08
  1 484 1.11419067E-08
  1 485 1.06734399E-08
  1 486 1.05615796E-08
  1 487 1.10556687E-08
  1 488 1.16980478E-08
  1 489 1.10866921E-08
  1 490 1.17098223E-08
  1 491 1.16963701E-08
  1 492 1.13815427E-08
  1 493 1.04682394E-08
  1 494 1.13390446E-08
  1 495 1.18000580E-08
  1 496 1.25804103E-08
  1 497 1.23735142E-08
  1 498 1.27886867E-08
  1 499 1.29891952E-08
  1 500 1.30292454E-08
  1 501 5.25162114E-09
  1 502 5.58197857E-09
  1 503 5.69211882E-09
  1 504 5.63447364E-09
  1 505 7.19830496E-09
  1 506 8.72853912E-09
  1 507 9.02029198E-09
  1 508 8.09106523E-09
  1 509 7.53096155E-09
  1 510 6.54639351E-09
  1 511 7.24928455E-09
  1 512 8.09496696E-09
  1 513 8.69013803E-09
  1 514 7.89945635E-09
  1 515 8.30653276E-09
  1 516 8.18232146E-09
  1 517 8.50011178E-09
  1 518 8.14275001E-09
  1 519 8.19995631E-09
  1 520 7.85389675E-09
  1 521 7.92563657E-09
  1 522 7.97173761E-09
  1 523 8.82750281E-09
  1 524 9.99745824E-09
  1 525 9.68476158E-09
  1 526 9.46555089E-09
  1 527 9.92092935E-09
  1 528 1.08628008E-08
  1 529 1.02203076E-08
  1 530 1.07122674E-08
  1 531 1.03437215E-08
  1 532 1.00173230E-08
  1 533 9.49268152E-09
  1 534 1.05605269E-08
  1 535 1.01874734E-08
  1 536 1.02452500E-08
  1 537 1.06081375E-08
  1 538 1.15717950E-08
  1 539 1.14624585E-08
  1 540 1.12478730E-08
  1 541 1.09488628E-08
  1 542 1.09985266E-08
  1 543 1.07466482E-08
  1 544 1.01111719E-08
  1 545 1.03265994E-08
  1 546 1.06903544E-08
  1 547 1.01785977E-08
  1 548 9.54640481E-09
  1 549 1.03874769E-08
  1 550 1.04378864E-08
  1 551 9.53402213E-09
  1 552 8.71785432E-09
  1 553 8.49923340E-09
  1 554 7.99552873E-09
  1 555 8.78349981E-09
  1 556 9.57180059E-09
  1 557 9.47268700E-09
  1 558 8.48299288E-09
  1 559 8.60123687E-09
  1 560 8.66885213E-09
  1 561 9.37633847E-09
  1 562 9.33118749E-09
  1 563 9.16378864E-09
  1 564 7.95507294E-09
  1 565 7.15999155E-09
  1 566 6.08698346E-09
  1 567 6.62766770E-09
  1 568 7.08649711E-09
  1 569 7.00117329E-09
  1 570 6.77517565E-09
  1 571 7.96523384E-09
  1 572 9.30620618E-09
  1 573 1.02586052E-08
  1 574 1.12597475E-08
  1 575 1.09657496E-08
  1 576 1.09070271E-08
  1 577 1.14977456E-08
  1 578 1.28253636E-08
  1 579 1.19166971E-08
  1 580 1.14450362E-08
  1 581 1.03857545E-08
  1 582 1.01599309E-08
  1 583 9.79427545E-09
  1 584 1.11866289E-08
  1 585 1.14926199E-08
  1 586 1.14290559E-08
  1 587 1.03973459E-08
  1 588 1.03213758E-08
  1 589 1.08401267E-08
  1 590 1.13679266E-08
  1 591 1.08969122E-08
  1 592 1.05370491E-08
  1 593 1.09472577E-08
  1 594 1.11911182E-08
  1 595 1.22500927E-08
  1 596 1.31829287E-08
  1 597 1.31686229E-08
  1 598 1.23118831E-08
  1 599 1.32243561E-08
  1 600 1.37026086E-08
  1 601 6.16647116E-09
  1 602 6.69076563E-09
  1 603 8.45514718E-09
  1 604 8.73622959E-09
  1 605 9.13108258E-09
  1 606 8.09653771E-09
  1 607 7.57767472E-09
  1 608 7.01191014E-09
  1 609 7.43389963E-09
  1 610 8.04993360E-09
  1 611 8.82694390E-09
  1 612 8.34132074E-09
  1 613 7.43088281E-09
  1 614 7.89036072E-09
  1 615 8.52031857E-09
  1 616 8.74605647E-09
  1 617 8.43446072E-09
  1 618 8.34553482E-09
  1 619 7.53030709E-09
  1 620 8.06009987E-09
  1 621 8.59329723E-09
  1 622 8.54795288E-09
  1 623 7.92429490E-09
  1 624 8.71350919E-09
  1 625 9.12760386E-09
  1 626 9.60900788E-09
  1 627 1.00289744E-08
  1 628 1.05029040E-08
  1 629 9.77807430E-09
  1 630 9.31987149E-09
  1 631 9.20512196E-09
  1 632 1.02260914E-08
  1 633 1.08609232E-08
  1 634 1.10190166E-08
  1 635 1.05495859E-08
  1 636 1.08016375E-08
  1 637 1.03943687E-08
  1 638 1.02053073E-08
  1 639 1.03979778E-08
  1 640 1.03798545E-08
  1 641 9.54173285E-09
  1 642 9.62528631E-09
  1 643 1.03053907E-08
  1 644 9.86494353E-09
  1 645 9.85878000E-09
  1 646 1.02533644E-08
  1 647 1.03445088E-08
  1 648 8.87009747E-09
  1 649 8.92099437E-09
  1 650 9.07440382E-09
  1 651 9.89848217E-09
  1 652 9.42253723E-09
  1 653 9.64665581E-09
  1 654 9.03880231E-09
  1 655 8.93812340E-09
  1 656 7.87211408E-09
  1 657 8.21489933E-09
  1 658 8.95518153E-09
  1 659 9.39284944E-09
  1 660 8.80960988E-09
  1 661 8.46745030E-09
  1 662 7.81682783E-09
  1 663 6.67692393E-09
  1 664 6.90807889E-09
  1 665 7.20567166E-09
  1 666 7.22023478E-09
  1 667 7.11090118E-09
  1 668 8.65193221E-09
  1 669 9.21748183E-09
  1 670 9.88112414E-09
  1 671 1.02634743E-08
  1 672 1.11911888E-08
  1 673 1.12536580E-08
  1 674 1.18945572E-08
  1 675 1.20936111E-08
  1 676 1.24487689E-08
  1 677 1.19022144E-08
  1 678 1.09811475E-08
  1 679 1.00402265E-08
  1 680 1.03695010E-08
  1 681 1.06909256E-08
  1 682 1.09159787E-08
  1 683 1.07293868E-08
  1 684 1.02859348E-08
  1 685 9.90465500E-09
  1 686 1.07572504E-08
  1 687 1.11811469E-08
  1 688 1.06003045E-08
  1 689 1.03290278E-08
  1 690 1.06882711E-08
  1 691 1.07149689E-08
  1 692 1.11286599E-08
  1 693 1.26240897E-08
  1 694 1.31019743E-08
  1 695 1.30424434E-08
  1 696 1.28497092E-08
  1 697 1.35238448E-08
  1 698 1.33910934E-08
  1 699 1.38672036E-08
  1 700 1.33533347E-08
  1 701 9.43647775E-09
  1 702 9.60225754E-09
  1 703 8.70588422E-09
  1 704 8.15203443E-09
  1 705 8.63835402E-09
  1 706 8.85432295E-09
  1 707 9.30449735E-09
  1 708 9.57109310E-09
  1 709 8.70641168E-09
  1 710 7.76655869E-09
  1 711 8.40358631E-09
  1 712 9.26692497E-09
  1 713 8.93906800E-09
  1 714 8.70699432E-09
  1 715 8.41558819E-09
  1 716 8.26138767E-09
  1 717 7.82272142E-09
  1 718 8.10209389E-09
  1 719 7.56293781E-09
  1 720 7.75851711E-09
  1 721 7.59093960E-09
  1 722 8.83200861E-09
  1 723 9.89235095E-09
  1 724 1.11029765E-08
  1 725 1.02277721E-08
  1 726 9.88219616E-09
  1 727 9.53142053E-09
  1 728 1.02023995E-08
  1 729 1.10594869E-08
  1 730 1.17126980E-08
  1 731 1.07908369E-08
  1 732 9.98656606E-09
  1 733 1.05059731E-08
  1 734 1.03188922E-08
  1 735 1.00068524E-08
  1 736 9.81151845E-09
  1 737 1.02236770E-08
  1 738 9.43321896E-09
  1 739 1.00938214E-08
  1 740 1.05411646E-08
  1 741 1.10951243E-08
  1 742 1.03337147E-08
  1 743 1.01448744E-08
  1 744 9.30517740E-09
  1 745 9.30584720E-09
  1 746 9.04465005E-09
  1 747 9.41271889E-09
  1 748 9.78833773E-09
  1 749 1.01045157E-08
  1 750 9.81554040E-09
  1 751 9.84435259E-09
  1 752 9.23872569E-09
  1 753 7.81411558E-09
  1 754 7.79559586E-09
  1 755 9.28306901E-09
  1 756 9.73183482E-09
  1 757 8.95350799E-09
  1 758 8.77624145E-09
  1 759 8.26528899E-09
  1 760 7.28661596E-09
  1 761 6.96639729E-09
  1 762 7.61078911E-09
  1 763 7.67881224E-09
  1 764 7.83588902E-09
  1 765 7.95484199E-09
  1 766 8.89271620E-09
  1 767 9.61056764E-09
  1 768 1.04142194E-08
  1 769 1.02577785E-08
  1 770 1.09358237E-08
  1 771 1.08904838E-08
  1 772 1.15444984E-08
  1 773 1.20058563E-08
  1 774 1.23216362E-08
  1 775 1.06315535E-08
  1 776 1.02412473E-08
  1 777 1.05513572E-08
  1 778 1.06045894E-08
  1 779 1.00293418E-08
  1 780 1.01425984E-08
  1 781 9.95251415E-09
  1 782 9.42476875E-09
  1 783 1.00870426E-08
  1 784 1.05032338E-08
  1 785 1.07438312E-08
  1 786 9.92012258E-09
  1 787 9.70099137E-09
  1 788 9.18379519E-09
  1 789 1.06927521E-08
  1 790 1.16539422E-08
  1 791 1.26805196E-08
  1 792 1.23118905E-08
  1 793 1.24967899E-08
  1 794 1.25034028E-08
  1 795 1.37340869E-08
  1 796 1.38529161E-08
  1 797 1.33888777E-08
  1 798 1.31274442E-08
  1 799 1.31972740E-08
  1 800 1.26075840E-08
  1 801 8.88506480E-09
  1 802 9.80574938E-09
  1 803 9.86130956E-09
  1 804 1.00960999E-08
  1 805 1.00987766E-08
  1 806 9.64021254E-09
  1 807 7.94428245E-09
  1 808 7.77331397E-09
  1 809 7.80736684E-09
  1 810 9.02902819E-09
  1 811 8.77529947E-09
  1 812 8.50725828E-09
  1 813 7.52268290E-09
  1 814 7.69913001E-09
  1 815 7.24029246E-09
  1 816 7.77990486E-09
  1 817 7.84624223E-09
  1 818 7.62377501E-09
  1 819 7.94092604E-09
  1 820 9.82029780E-09
  1 821 1.06649947E-08
  1 822 9.84970578E-09
  1 823 9.48787888E-09
  1 824 9.51763721E-09
  1 825 9.90181546E-09
  1 826 1.07044328E-08
  1 827 1.18079357E-08
  1 828 1.12619618E-08
  1 829 1.04286900E-08
  1 830 9.68204561E-09
  1 831 9.81764978E-09
  1 832 1.01335820E-08
  1 833 1.05786133E-08
  1 834 9.83387541E-09
  1 835 9.48020566E-09
  1 836 9.65504424E-09
  1 837 1.07674065E-08
  1 838 1.13729248E-08
  1 839 1.12391134E-08
  1 840 9.34453940E-09
  1 841 8.46346860E-09
  1 842 8.29708570E-09
  1 843 8.58368853E-09
  1 844 8.59498232E-09
  1 845 9.83713868E-09
  1 846 9.90264266E-09
  1 847 9.36932395E-09
  1 848 9.02266155E-09
  1 849 9.00428659E-09
  1 850 8.23338606E-09
  1 851 7.99144361E-09
  1 852 8.65786863E-09
  1 853 8.82675061E-09
  1 854 9.15118107E-09
  1 855 8.93834730E-09
  1 856 8.77244030E-09
  1 857 7.51148127E-09
  1 858 7.43040174E-09
  1 859 7.28883314E-09
  1 860 8.41317879E-09
  1 861 8.04492977E-09
  1 862 8.18691836E-09
  1 863 8.61611635E-09
  1 864 1.01675814E-08
  1 865 9.80215179E-09
  1 866 9.81531128E-09
  1 867 1.03307012E-08
  1 868 1.06447508E-08
  1 869 1.03147521E-08
  1 870 1.09951793E-08
  1 871 1.18406697E-08
  1 872 1.13577920E-08
  1 873 1.10660049E-08
  1 874 1.07957478E-08
  1 875 1.06999243E-08
  1 876 1.01014899E-08
  1 877 1.02371588E-08
  1 878 9.70586705E-09
  1 879 9.60451969E-09
  1 880 9.32310912E-09
  1 881 9.89777622E-09
  1 882 9.96836852E-09
  1 883 9.52112261E-09
  1 884 8.28295263E-09
  1 885 8.79810044E-09
  1 886 1.00613185E-08
  1 887 1.11397497E-08
  1 888 1.17064689E-08
  1 889 1.27798177E-08
  1 890 1.26659144E-08
  1 891 1.25971213E-08
  1 892 1.32268597E-08
  1 893 1.42019390E-08
  1 894 1.38973708E-08
  1 895 1.35760972E-08
  1 896 1.28764736E-08
  1 897 1.24194361E-08
  1 898 1.27619496E-08
  1 899 1.35050753E-08
  1 900 1.31851201E-08
  1 901 1.03280517E-08
  1 902 1.04016981E-08
  1 903 9.68919733E-09
  1 904 8.79335652E-09
  1 905 7.38963422E-09
  1 906 7.71168644E-09
  1 907 8.84220269E-09
  1 908 9.36244256E-09
  1 909 8.64052904E-09
  1 910 8.80222252E-09
  1 911 8.52977295E-09
  1 912 7.80937591E-09
  1 913 7.73027786E-09
  1 914 8.82320788E-09
  1 915 8.79259495E-09
  1 916 8.67041600E-09
  1 917 9.07881352E-09
  1 918 9.56048869E-09
  1 919 9.39001475E-09
  1 920 9.37538116E-09
  1 921 9.50313987E-09
  1 922 9.65908920E-09
  1 923 1.05387506E-08
  1 924 1.13024757E-08
  1 925 1.20165037E-08
  1 926 1.12648126E-08
  1 927 1.05887391E-08
  1 928 1.00430284E-08
  1 929 1.11131359E-08
  1 930 1.05137675E-08
  1 931 1.00844390E-08
  1 932 9.67810854E-09
  1 933 1.04508913E-08
  1 934 1.01836994E-08
  1 935 1.10663381E-08
  1 936 1.11061819E-08
  1 937 1.00949858E-08
  1 938 8.38951576E-09
  1 939 7.77997675E-09
  1 940 7.77472900E-09
  1 941 8.46593064E-09
  1 942 9.79755383E-09
  1 943 9.70996480E-09
  1 944 9.05074769E-09
  1 945 8.12735211E-09
  1 946 8.24561251E-09
  1 947 7.79158293E-09
  1 948 8.14484500E-09
  1 949 7.92697054E-09
  1 950 8.66088589E-09
  1 951 8.81185259E-09
  1 952 9.01819719E-09
  1 953 8.65732702E-09
  1 954 9.12505604E-09
  1 955 8.47614501E-09
  1 956 7.72753459E-09
  1 957 7.68325350E-09
  1 958 8.38509279E-09
  1 959 8.66085944E-09
  1 960 9.64261688E-09
  1 961 1.03535637E-08
  1 962 9.89074162E-09
  1 963 9.49989660E-09
  1 964 1.02877648E-08
  1 965 1.06405564E-08
  1 966 1.04979327E-08
  1 967 1.09745814E-08
  1 968 1.17294737E-08
  1 969 1.20431819E-08
  1 970 1.19884106E-08
  1 971 1.21262366E-08
  1 972 1.19133146E-08
  1 973 1.13007454E-08
  1 974 9.72467164E-09
  1 975 9.56394066E-09
  1 976 9.95940446E-09
  1 977 1.01435748E-08
  1 978 8.79169866E-09
  1 979 8.67335173E-09
  1 980 7.79063780E-09
  1 981 7.64213780E-09
  1 982 8.20185048E-09
  1 983 1.00990441E-08
  1 984 1.03244416E-08
  1 985 1.11674772E-08
  1 986 1.22518713E-08
  1 987 1.30865496E-08
  1 988 1.31660502E-08
  1 989 1.36402206E-08
  1 990 1.40018222E-08
  1 991 1.35095187E-08
  1 992 1.31819141E-08
  1 993 1.26787242E-08
  1 994 1.33273315E-08
  1 995 1.32213445E-08
  1 996 1.31545963E-08
  1 997 1.25302823E-08
  1 998 1.31750362E-08
  1 999 1.22392624E-08
  1 1000 1.16347886E-08
  1 1001 8.05933342E-09
  1 1002 8.15128517E-09
  1 1003 8.10158535E-09
  1 1004 9.47169306E-09
  1 1005 9.30931236E-09
  1 1006 9.16089759E-09
  1 1007 9.31724486E-09
  1 1008 9.55979780E-09
  1 1009 8.66120689E-09
  1 1010 8.38538979E-09
  1 1011 8.82990634E-09
  1 1012 8.67644633E-09
  1 1013 8.71389109E-09
  1 1014 8.70232483E-09
  1 1015 9.38948211E-09
  1 1016 8.93078121E-09
  1 1017 8.67832222E-09
  1 1018 8.31504143E-09
  1 1019 1.01595098E-08
  1 1020 1.09174247E-08
  1 1021 1.12555671E-08
  1 1022 1.09889860E-08
  1 1023 1.15033965E-08
  1 1024 1.07292391E-08
  1 1025 1.09421113E-08
  1 1026 1.12842034E-08
  1 1027 1.06385194E-08
  1 1028 9.19351101E-09
  1 1029 9.21709696E-09
  1 1030 9.84488906E-09
  1 1031 1.02701054E-08
  1 1032 1.08851202E-08
  1 1033 1.07225573E-08
  1 1034 9.41168115E-09
  1 1035 7.85647403E-09
  1 1036 7.61037859E-09
  1 1037 8.24182291E-09
  1 1038 9.13107507E-09
  1 1039 8.77799247E-09
  1 1040 8.32838971E-09
  1 1041 8.36861546E-09
  1 1042 8.49457986E-09
  1 1043 7.55518486E-09
  1 1044 7.32206014E-09
  1 1045 7.04571368E-09
  1 1046 7.18682480E-09
  1 1047 7.81990154E-09
  1 1048 9.47567713E-09
  1 1049 9.46965058E-09
  1 1050 9.56023231E-09
  1 1051 9.28165289E-09
  1 1052 9.02422392E-09
  1 1053 8.08106359E-09
  1 1054 8.58656942E-09
  1 1055 8.56712661E-09
  1 1056 8.59517347E-09
  1 1057 8.99937897E-09
  1 1058 1.01954779E-08
  1 1059 1.08970866E-08
  1 1060 1.08335255E-08
  1 1061 1.04373447E-08
  1 1062 1.01387263E-08
  1 1063 1.13469321E-08
  1 1064 1.21746561E-08
  1 1065 1.32323316E-08
  1 1066 1.32277169E-08
  1 1067 1.33835351E-08
  1 1068 1.24507248E-08
  1 1069 1.31077270E-08
  1 1070 1.24878282E-08
  1 1071 1.14150094E-08
  1 1072 1.01153143E-08
  1 1073 1.04042131E-08
  1 1074 9.47723345E-09
  1 1075 8.87264077E-09
  1 1076 8.66543858E-09
  1 1077 8.12238468E-09
  1 1078 6.90881789E-09
  1 1079 7.11876717E-09
  1 1080 9.01545077E-09
  1 1081 1.07168769E-08
  1 1082 1.17487493E-08
  1 1083 1.18236527E-08
  1 1084 1.24725767E-08
  1 1085 1.32055842E-08
  1 1086 1.40610260E-08
  1 1087 1.41516076E-08
  1 1088 1.42515151E-08
  1 1089 1.30829129E-08
  1 1090 1.24170684E-08
  1 1091 1.29550277E-08
  1 1092 1.40504967E-08
  1 1093 1.36875825E-08
  1 1094 1.37894045E-08
  1 1095 1.36925972E-08
  1 1096 1.30406390E-08
  1 1097 1.21986127E-08
  1 1098 1.29547368E-08
  1 1099 1.28460778E-08
  1 1100 1.21773921E-08
  1 1101 9.60111268E-09
  1 1102 1.02569210E-08
  1 1103 1.05646780E-08
  1 1104 9.99844831E-09
  1 1105 9.55612861E-09
  1 1106 9.02993218E-09
  1 1107 9.13086420E-09
  1 1108 8.70563624E-09
  1 1109 8.98933525E-09
  1 1110 8.86587749E-09
  1 1111 8.74241594E-09
  1 1112 8.68852098E-09
  1 1113 9.39872921E-09
  1 1114 9.11602327E-09
  1 1115 9.43953073E-09
  1 1116 1.03464804E-08
  1 1117 1.09838199E-08
  1 1118 1.05462408E-08
  1 1119 1.13703208E-08
  1 1120 1.17891687E-08
  1 1121 1.13102352E-08
  1 1122 1.04329624E-08
  1 1123 1.07929666E-08
  1 1124 1.04617278E-08
  1 1125 9.83195148E-09
  1 1126 9.11247876E-09
  1 1127 9.45470641E-09
  1 1128 1.01864903E-08
  1 1129 1.05487377E-08
  1 1130 1.01331670E-08
  1 1131 9.26184585E-09
  1 1132 8.35774725E-09
  1 1133 7.17300568E-09
  1 1134 7.86804886E-09
  1 1135 8.59776199E-09
  1 1136 8.89033034E-09
  1 1137 8.01141752E-09
  1 1138 8.53977536E-09
  1 1139 7.62314942E-09
  1 1140 7.20195990E-09
  1 1141 6.96805984E-09
  1 1142 7.66245228E-09
  1 1143 6.81473268E-09
  1 1144 7.27017680E-09
  1 1145 8.51479540E-09
  1 1146 1.01044045E-08
  1 1147 1.04563155E-08
  1 1148 1.00227641E-08
  1 1149 9.23485135E-09
  1 1150 8.64249907E-09
  1 1151 8.58125496E-09
  1 1152 8.32079071E-09
  1 1153 9.02312570E-09
  1 1154 9.36984316E-09
  1 1155 9.97394496E-09
  1 1156 1.02095184E-08
  1 1157 1.10337880E-08
  1 1158 1.07445553E-08
  1 1159 1.14381115E-08
  1 1160 1.22606419E-08
  1 1161 1.30067549E-08
  1 1162 1.31034186E-08
  1 1163 1.41925917E-08
  1 1164 1.42339917E-08
  1 1165 1.35600829E-08
  1 1166 1.29235115E-08
  1 1167 1.27509087E-08
  1 1168 1.16856328E-08
  1 1169 1.09406314E-08
  1 1170 1.03515819E-08
  1 1171 9.86160660E-09
  1 1172 9.09724268E-09
  1 1173 8.47851609E-09
  1 1174 7.40046219E-09
  1 1175 6.86300991E-09
  1 1176 7.18063682E-09
  1 1177 8.37665121E-09
  1 1178 9.80890705E-09
  1 1179 1.04856248E-08
  1 1180 1.08304771E-08
  1 1181 1.18035204E-08
  1 1182 1.34533396E-08
  1 1183 1.34049804E-08
  1 1184 1.35592095E-08
  1 1185 1.35304982E-08
  1 1186 1.33018940E-08
  1 1187 1.18676275E-08
  1 1188 1.26978626E-08
  1 1189 1.31754366E-08
  1 1190 1.34246351E-08
  1 1191 1.28148033E-08
  1 1192 1.34936834E-08
  1 1193 1.34397884E-08
  1 1194 1.38031943E-08
  1 1195 1.36224299E-08
  1 1196 1.32595533E-08
  1 1197 1.25463118E-08
  1 1198 1.20929586E-08
  1 1199 1.22871285E-08
  1 1200 1.24105559E-08
  1 1201 9.54374771E-09
  1 1202 9.08669285E-09
  1 1203 9.51231301E-09
  1 1204 8.90856543E-09
  1 1205 8.12929501E-09
  1 1206 7.67032188E-09
  1 1207 8.50123983E-09
  1 1208 8.02618964E-09
  1 1209 8.56208616E-09
  1 1210 8.74108203E-09
  1 1211 9.10227644E-09
  1 1212 8.65422228E-09
  1 1213 9.82201878E-09
  1 1214 1.03746930E-08
  1 1215 1.09084258E-08
  1 1216 1.06723654E-08
  1 1217 1.03758425E-08
  1 1218 9.94255108E-09
  1 1219 1.00468468E-08
  1 1220 1.02877632E-08
  1 1221 9.79366300E-09
  1 1222 9.24618253E-09
  1 1223 8.24377379E-09
  1 1224 9.02976426E-09
  1 1225 1.00191315E-08
  1 1226 1.04654209E-08
  1 1227 8.91442758E-09
  1 1228 8.52828324E-09
  1 1229 7.37871492E-09
  1 1230 6.66329127E-09
  1 1231 6.78233198E-09
  1 1232 8.33149028E-09
  1 1233 7.91274284E-09
  1 1234 7.16093611E-09
  1 1235 6.97084012E-09
  1 1236 7.42028037E-09
  1 1237 7.34630975E-09
  1 1238 7.12771312E-09
  1 1239 6.34564707E-09
  1 1240 5.71519331E-09
  1 1241 6.13934311E-09
  1 1242 7.63554064E-09
  1 1243 9.37148193E-09
  1 1244 9.93066832E-09
  1 1245 9.05378763E-09
  1 1246 8.35641581E-09
  1 1247 8.76415323E-09
  1 1248 8.65585589E-09
  1 1249 8.50224909E-09
  1 1250 8.94435184E-09
  1 1251 9.20785701E-09
  1 1252 8.45483193E-09
  1 1253 9.35821483E-09
  1 1254 1.06647748E-08
  1 1255 1.13744697E-08
  1 1256 1.09838423E-08
  1 1257 1.18506646E-08
  1 1258 1.23771859E-08
  1 1259 1.37479794E-08
  1 1260 1.40993309E-08
  1 1261 1.40283428E-08
  1 1262 1.27671019E-08
  1 1263 1.24793882E-08
  1 1264 1.18829008E-08
  1 1265 1.16767034E-08
  1 1266 1.08083806E-08
  1 1267 9.64758201E-09
  1 1268 8.93340004E-09
  1 1269 8.67207522E-09
  1 1270 8.11435386E-09
  1 1271 7.09196816E-09
  1 1272 7.29127213E-09
  1 1273 6.78154037E-09
  1 1274 7.26666654E-09
  1 1275 8.37155786E-09
  1 1276 1.03109156E-08
  1 1277 1.02555859E-08
  1 1278 1.11322663E-08
  1 1279 1.16856147E-08
  1 1280 1.27283861E-08
  1 1281 1.31692943E-08
  1 1282 1.38145055E-08
  1 1283 1.25917635E-08
  1 1284 1.15155575E-08
  1 1285 1.14202596E-08
  1 1286 1.21786402E-08
  1 1287 1.24945365E-08
  1 1288 1.23453549E-08
  1 1289 1.24107812E-08