# File generated by Flopy version 3.5.0 on 01/31/2024 at 13:35:23.
BEGIN options
  PRINT_OPTION  summary
  COMPLEXITY  complex
END options

BEGIN linear
  LINEAR_ACCELERATION  bicgstab
END linear

