# File generated by Flopy version 3.5.0 on 01/23/2024 at 11:34:46.
BEGIN options
END options

BEGIN dimensions
  MAXBOUND  5
END dimensions

BEGIN period  1
  1 920 -9.00000000E+00
  1 960 -1.80000000E+01
  1 2920 -9.00000000E+01
  1 2980 -9.00000000E-02
  1 3970 -9.00000000E-01
END period  1

