# File generated by Flopy version 3.5.0 on 01/24/2024 at 16:08:37.
BEGIN options
END options

BEGIN dimensions
  MAXBOUND  5000
END dimensions

BEGIN period  1
  1 1 7.24705143E-09
  1 2 6.23740342E-09
  1 3 7.41846530E-09
  1 4 7.67185688E-09
  1 5 6.70168323E-09
  1 6 6.98707677E-09
  1 7 8.91688593E-09
  1 8 9.05604962E-09
  1 9 8.62117104E-09
  1 10 9.55020872E-09
  1 11 8.95215076E-09
  1 12 6.58088400E-09
  1 13 5.35610125E-09
  1 14 5.94212103E-09
  1 15 6.46484000E-09
  1 16 7.57584084E-09
  1 17 8.28626862E-09
  1 18 9.35358678E-09
  1 19 1.08006349E-08
  1 20 1.30577279E-08
  1 21 1.34363890E-08
  1 22 1.38452634E-08
  1 23 1.27179362E-08
  1 24 1.29549115E-08
  1 25 1.32410907E-08
  1 26 1.47052966E-08
  1 27 1.41801736E-08
  1 28 1.61139346E-08
  1 29 1.68977613E-08
  1 30 1.69113722E-08
  1 31 1.56702493E-08
  1 32 1.59086691E-08
  1 33 1.39957009E-08
  1 34 1.31352078E-08
  1 35 1.51453511E-08
  1 36 1.77507966E-08
  1 37 1.91555253E-08
  1 38 1.92124035E-08
  1 39 1.87360146E-08
  1 40 1.65831664E-08
  1 41 1.78127880E-08
  1 42 1.90070679E-08
  1 43 2.00377821E-08
  1 44 1.77148383E-08
  1 45 1.74344704E-08
  1 46 1.77931135E-08
  1 47 2.11421140E-08
  1 48 2.14499735E-08
  1 49 2.08232164E-08
  1 50 1.88418894E-08
  1 51 1.69494507E-08
  1 52 1.41114142E-08
  1 53 1.49431679E-08
  1 54 1.71275278E-08
  1 55 1.66167636E-08
  1 56 1.53554412E-08
  1 57 1.62472683E-08
  1 58 1.76508374E-08
  1 59 1.78748449E-08
  1 60 1.90998764E-08
  1 61 1.93110412E-08
  1 62 1.94303937E-08
  1 63 2.06300437E-08
  1 64 2.32509280E-08
  1 65 2.32675797E-08
  1 66 2.11814542E-08
  1 67 1.77552624E-08
  1 68 1.69056585E-08
  1 69 1.76412323E-08
  1 70 1.87182220E-08
  1 71 1.83386868E-08
  1 72 1.90931104E-08
  1 73 1.72823851E-08
  1 74 1.47800413E-08
  1 75 1.34656703E-08
  1 76 1.47841275E-08
  1 77 1.34119518E-08
  1 78 1.30970400E-08
  1 79 1.35229853E-08
  1 80 1.46310213E-08
  1 81 1.45293361E-08
  1 82 1.52112665E-08
  1 83 1.40680204E-08
  1 84 1.25239970E-08
  1 85 1.26686148E-08
  1 86 1.35036673E-08
  1 87 1.46336600E-08
  1 88 1.54891510E-08
  1 89 1.79897592E-08
  1 90 1.95844027E-08
  1 91 2.19958314E-08
  1 92 2.07883879E-08
  1 93 1.99147112E-08
  1 94 1.78653200E-08
  1 95 1.76243963E-08
  1 96 1.65674846E-08
  1 97 1.93469888E-08
  1 98 2.07298665E-08
  1 99 2.13138154E-08
  1 100 2.11557865E-08
  1 101 9.73580819E-09
  1 102 9.50885834E-09
  1 103 9.99457059E-09
  1 104 1.01407820E-08
  1 105 9.48601057E-09
  1 106 9.56419700E-09
  1 107 1.07534977E-08
  1 108 1.11579028E-08
  1 109 8.72624299E-09
  1 110 6.81780189E-09
  1 111 5.28169570E-09
  1 112 7.15562648E-09
  1 113 7.78779425E-09
  1 114 9.52407493E-09
  1 115 1.05100138E-08
  1 116 1.31330221E-08
  1 117 1.26252331E-08
  1 118 1.45955793E-08
  1 119 1.61748907E-08
  1 120 1.60219801E-08
  1 121 1.27063857E-08
  1 122 1.23008353E-08
  1 123 1.31599378E-08
  1 124 1.46679942E-08
  1 125 1.65775019E-08
  1 126 1.70143753E-08
  1 127 1.56499485E-08
  1 128 1.41831123E-08
  1 129 1.46604958E-08
  1 130 1.42935091E-08
  1 131 1.52152716E-08
  1 132 1.60727250E-08
  1 133 1.80599360E-08
  1 134 1.88681037E-08
  1 135 1.97182685E-08
  1 136 1.88777898E-08
  1 137 1.92726002E-08
  1 138 1.87587568E-08
  1 139 1.82243646E-08
  1 140 1.78758995E-08
  1 141 1.87991843E-08
  1 142 1.79392697E-08
  1 143 1.84389002E-08
  1 144 2.02860371E-08
  1 145 2.19692977E-08
  1 146 2.13081823E-08
  1 147 2.06437105E-08
  1 148 1.76715222E-08
  1 149 1.49145335E-08
  1 150 1.47853694E-08
  1 151 1.69074501E-08
  1 152 1.67040328E-08
  1 153 1.59159785E-08
  1 154 1.62705680E-08
  1 155 1.72353820E-08
  1 156 1.81294540E-08
  1 157 1.83639105E-08
  1 158 1.95542183E-08
  1 159 2.03347456E-08
  1 160 2.16399678E-08
  1 161 2.12561348E-08
  1 162 2.27138963E-08
  1 163 2.10685498E-08
  1 164 1.83259424E-08
  1 165 1.51403940E-08
  1 166 1.66549960E-08
  1 167 1.67618372E-08
  1 168 1.79440095E-08
  1 169 1.81086231E-08
  1 170 1.72835868E-08
  1 171 1.40382094E-08
  1 172 1.37198421E-08
  1 173 1.45045928E-08
  1 174 1.36604670E-08
  1 175 1.25797925E-08
  1 176 1.27702863E-08
  1 177 1.44655042E-08
  1 178 1.47656049E-08
  1 179 1.51642019E-08
  1 180 1.40152718E-08
  1 181 1.39737294E-08
  1 182 1.20140109E-08
  1 183 1.16434291E-08
  1 184 1.25601103E-08
  1 185 1.56707056E-08
  1 186 1.64829021E-08
  1 187 1.84228959E-08
  1 188 1.99002346E-08
  1 189 2.02402476E-08
  1 190 1.88815355E-08
  1 191 1.87167297E-08
  1 192 1.74675167E-08
  1 193 1.68903664E-08
  1 194 1.82092773E-08
  1 195 1.98908012E-08
  1 196 1.92904377E-08
  1 197 1.91946028E-08
  1 198 2.00164125E-08
  1 199 2.09859652E-08
  1 200 2.15746619E-08
  1 201 8.76555537E-09
  1 202 9.92161528E-09
  1 203 9.68611261E-09
  1 204 1.02786351E-08
  1 205 1.01354055E-08
  1 206 1.10822474E-08
  1 207 8.91436572E-09
  1 208 7.84235157E-09
  1 209 8.48134971E-09
  1 210 1.02416693E-08
  1 211 1.03414142E-08
  1 212 1.21766467E-08
  1 213 1.36986278E-08
  1 214 1.39851601E-08
  1 215 1.45514258E-08
  1 216 1.60848993E-08
  1 217 1.46992355E-08
  1 218 1.19111845E-08
  1 219 1.11465741E-08
  1 220 1.26232944E-08
  1 221 1.42215135E-08
  1 222 1.55903118E-08
  1 223 1.64124073E-08
  1 224 1.63141679E-08
  1 225 1.53195270E-08
  1 226 1.37700532E-08
  1 227 1.45713065E-08
  1 228 1.63222140E-08
  1 229 1.74726159E-08
  1 230 1.70592684E-08
  1 231 1.90013199E-08
  1 232 1.94155120E-08
  1 233 2.00591003E-08
  1 234 1.99332836E-08
  1 235 2.07902483E-08
  1 236 1.87664815E-08
  1 237 1.92321084E-08
  1 238 1.92900653E-08
  1 239 1.95534013E-08
  1 240 1.93773104E-08
  1 241 2.20347032E-08
  1 242 2.32924489E-08
  1 243 2.29064545E-08
  1 244 2.12445618E-08
  1 245 1.88672775E-08
  1 246 1.74354214E-08
  1 247 1.66545785E-08
  1 248 1.73189956E-08
  1 249 1.71248149E-08
  1 250 1.82156737E-08
  1 251 1.72388606E-08
  1 252 1.83145022E-08
  1 253 1.91829808E-08
  1 254 2.10607042E-08
  1 255 2.10183769E-08
  1 256 2.28399103E-08
  1 257 2.24504685E-08
  1 258 2.24644952E-08
  1 259 2.27487932E-08
  1 260 2.21635329E-08
  1 261 1.75093995E-08
  1 262 1.45646371E-08
  1 263 1.51777208E-08
  1 264 1.65798684E-08
  1 265 1.73572118E-08
  1 266 1.81078294E-08
  1 267 1.79307970E-08
  1 268 1.66177024E-08
  1 269 1.60852672E-08
  1 270 1.59682406E-08
  1 271 1.60716745E-08
  1 272 1.50455368E-08
  1 273 1.38521516E-08
  1 274 1.37701217E-08
  1 275 1.52719831E-08
  1 276 1.49477507E-08
  1 277 1.45576362E-08
  1 278 1.38126469E-08
  1 279 1.25474214E-08
  1 280 1.10025100E-08
  1 281 1.42291987E-08
  1 282 1.68039435E-08
  1 283 1.78349374E-08
  1 284 1.81390142E-08
  1 285 2.11561351E-08
  1 286 2.12694365E-08
  1 287 2.10702635E-08
  1 288 2.00904272E-08
  1 289 2.01992893E-08
  1 290 1.94903259E-08
  1 291 1.97165686E-08
  1 292 1.96337199E-08
  1 293 2.00596154E-08
  1 294 2.04334512E-08
  1 295 1.98230425E-08
  1 296 2.06335396E-08
  1 297 2.11183579E-08
  1 298 2.16113680E-08
  1 299 2.09520376E-08
  1 300 2.28406128E-08
  1 301 1.03052979E-08
  1 302 1.21835689E-08
  1 303 1.29186608E-08
  1 304 1.19572371E-08
  1 305 9.90365047E-09
  1 306 1.19792942E-08
  1 307 1.25808807E-08
  1 308 1.25120875E-08
  1 309 1.23434935E-08
  1 310 1.43152862E-08
  1 311 1.49220980E-08
  1 312 1.56668357E-08
  1 313 1.53398524E-08
  1 314 1.41722275E-08
  1 315 1.26502597E-08
  1 316 1.13136129E-08
  1 317 1.25734450E-08
  1 318 1.48915492E-08
  1 319 1.72750676E-08
  1 320 1.66572888E-08
  1 321 1.75284873E-08
  1 322 1.59406025E-08
  1 323 1.51392128E-08
  1 324 1.50368128E-08
  1 325 1.76226075E-08
  1 326 1.60779074E-08
  1 327 1.60672981E-08
  1 328 1.77119986E-08
  1 329 2.02607791E-08
  1 330 2.02582304E-08
  1 331 2.12529030E-08
  1 332 2.18356252E-08
  1 333 2.15941424E-08
  1 334 2.10675230E-08
  1 335 2.07291123E-08
  1 336 2.13624214E-08
  1 337 2.19738364E-08
  1 338 2.26096442E-08
  1 339 2.25242730E-08
  1 340 2.33539339E-08
  1 341 2.19819114E-08
  1 342 2.02892622E-08
  1 343 1.91033970E-08
  1 344 1.91332805E-08
  1 345 1.85443622E-08
  1 346 2.01232685E-08
  1 347 2.05974934E-08
  1 348 1.94967368E-08
  1 349 1.88153193E-08
  1 350 2.13148057E-08
  1 351 2.22861211E-08
  1 352 2.27685124E-08
  1 353 2.26410707E-08
  1 354 2.29661064E-08
  1 355 2.21048286E-08
  1 356 2.23509161E-08
  1 357 2.03660447E-08
  1 358 1.76160561E-08
  1 359 1.46366795E-08
  1 360 1.40145342E-08
  1 361 1.48796352E-08
  1 362 1.74240276E-08
  1 363 1.90182918E-08
  1 364 1.90154280E-08
  1 365 1.85896632E-08
  1 366 1.72443912E-08
  1 367 1.77394734E-08
  1 368 1.85150305E-08
  1 369 1.81797679E-08
  1 370 1.37611166E-08
  1 371 1.31012482E-08
  1 372 1.34754408E-08
  1 373 1.44728029E-08
  1 374 1.30557948E-08
  1 375 1.37501165E-08
  1 376 1.21920005E-08
  1 377 1.26294111E-08
  1 378 1.47326063E-08
  1 379 1.85360334E-08
  1 380 1.98168502E-08
  1 381 2.04200640E-08
  1 382 2.07633625E-08
  1 383 2.13604730E-08
  1 384 2.22163013E-08
  1 385 2.20060483E-08
  1 386 2.19978692E-08
  1 387 2.05653807E-08
  1 388 1.93096419E-08
  1 389 1.88332458E-08
  1 390 2.18933897E-08
  1 391 2.22034445E-08
  1 392 2.08478759E-08
  1 393 2.00380371E-08
  1 394 2.16917673E-08
  1 395 2.10618200E-08
  1 396 2.13149355E-08
  1 397 2.22953764E-08
  1 398 2.33534344E-08
  1 399 2.31653818E-08
  1 400 2.44548314E-08
  1 401 1.22577185E-08
  1 402 1.15089060E-08
  1 403 1.10673379E-08
  1 404 1.08628699E-08
  1 405 1.14706159E-08
  1 406 1.20371462E-08
  1 407 1.32590073E-08
  1 408 1.39035017E-08
  1 409 1.50999596E-08
  1 410 1.45130231E-08
  1 411 1.51866913E-08
  1 412 1.38403487E-08
  1 413 1.21009595E-08
  1 414 1.15453714E-08
  1 415 1.52648540E-08
  1 416 1.68289630E-08
  1 417 1.69950594E-08
  1 418 1.66728713E-08
  1 419 1.65116579E-08
  1 420 1.45778467E-08
  1 421 1.47043199E-08
  1 422 1.55951606E-08
  1 423 1.59074201E-08
  1 424 1.51892886E-08
  1 425 1.59758245E-08
  1 426 1.72282270E-08
  1 427 1.94218975E-08
  1 428 2.10201266E-08
  1 429 2.21442791E-08
  1 430 2.17793151E-08
  1 431 2.04875666E-08
  1 432 1.97344175E-08
  1 433 2.14737944E-08
  1 434 2.29421338E-08
  1 435 2.11399309E-08
  1 436 2.01279004E-08
  1 437 2.05384566E-08
  1 438 2.09208420E-08
  1 439 1.96492402E-08
  1 440 2.13234844E-08
  1 441 2.13088471E-08
  1 442 2.10376878E-08
  1 443 1.99786333E-08
  1 444 2.16862436E-08
  1 445 2.12515236E-08
  1 446 2.18177911E-08
  1 447 2.07814177E-08
  1 448 2.07767010E-08
  1 449 2.04116814E-08
  1 450 2.15821178E-08
  1 451 2.19546760E-08
  1 452 2.17642593E-08
  1 453 2.00943879E-08
  1 454 1.75776924E-08
  1 455 1.68649317E-08
  1 456 1.57902673E-08
  1 457 1.50744866E-08
  1 458 1.49293459E-08
  1 459 1.76731262E-08
  1 460 1.77008315E-08
  1 461 1.83509494E-08
  1 462 1.86079681E-08
  1 463 1.94432231E-08
  1 464 1.80568789E-08
  1 465 1.83955241E-08
  1 466 1.70359384E-08
  1 467 1.54365369E-08
  1 468 1.39641686E-08
  1 469 1.36455741E-08
  1 470 1.21141336E-08
  1 471 1.19099382E-08
  1 472 1.29236353E-08
  1 473 1.42794944E-08
  1 474 1.52797868E-08
  1 475 1.67702483E-08
  1 476 1.87435666E-08
  1 477 2.09545721E-08
  1 478 2.17911953E-08
  1 479 2.16423702E-08
  1 480 2.27262871E-08
  1 481 2.35238831E-08
  1 482 2.21960077E-08
  1 483 2.08351178E-08
  1 484 2.13324182E-08
  1 485 2.04354863E-08
  1 486 2.02213173E-08
  1 487 2.11673058E-08
  1 488 2.23972120E-08
  1 489 2.12267036E-08
  1 490 2.24197557E-08
  1 491 2.23939999E-08
  1 492 2.17912278E-08
  1 493 2.00426072E-08
  1 494 2.17098604E-08
  1 495 2.25925219E-08
  1 496 2.40865931E-08
  1 497 2.36904675E-08
  1 498 2.44853612E-08
  1 499 2.48692571E-08
  1 500 2.49459377E-08
  1 501 1.00548121E-08
  1 502 1.06873181E-08
  1 503 1.08981938E-08
  1 504 1.07878257E-08
  1 505 1.37819545E-08
  1 506 1.67117578E-08
  1 507 1.72703510E-08
  1 508 1.54912432E-08
  1 509 1.44188625E-08
  1 510 1.25337976E-08
  1 511 1.38795606E-08
  1 512 1.54987135E-08
  1 513 1.66382346E-08
  1 514 1.51243867E-08
  1 515 1.59037797E-08
  1 516 1.56659634E-08
  1 517 1.62744082E-08
  1 518 1.55901994E-08
  1 519 1.56997273E-08
  1 520 1.50371578E-08
  1 521 1.51745116E-08
  1 522 1.52627772E-08
  1 523 1.69012348E-08
  1 524 1.91412444E-08
  1 525 1.85425519E-08
  1 526 1.81228487E-08
  1 527 1.89947213E-08
  1 528 2.07980389E-08
  1 529 1.95679143E-08
  1 530 2.05098260E-08
  1 531 1.98042039E-08
  1 532 1.91792778E-08
  1 533 1.81747933E-08
  1 534 2.02193020E-08
  1 535 1.95050495E-08
  1 536 1.96156691E-08
  1 537 2.03104577E-08
  1 538 2.21554869E-08
  1 539 2.19461501E-08
  1 540 2.15353024E-08
  1 541 2.09628141E-08
  1 542 2.10579010E-08
  1 543 2.05756518E-08
  1 544 1.93589618E-08
  1 545 1.97714217E-08
  1 546 2.04678710E-08
  1 547 1.94880560E-08
  1 548 1.82776525E-08
  1 549 1.98879784E-08
  1 550 1.99844930E-08
  1 551 1.82539445E-08
  1 552 1.66913005E-08
  1 553 1.62727265E-08
  1 554 1.53083279E-08
  1 555 1.68169861E-08
  1 556 1.83262755E-08
  1 557 1.81365116E-08
  1 558 1.62416322E-08
  1 559 1.64680235E-08
  1 560 1.65974804E-08
  1 561 1.79520416E-08
  1 562 1.78655950E-08
  1 563 1.75450913E-08
  1 564 1.52308708E-08
  1 565 1.37085992E-08
  1 566 1.16542060E-08
  1 567 1.26894060E-08
  1 568 1.35678859E-08
  1 569 1.34045240E-08
  1 570 1.29718264E-08
  1 571 1.52503250E-08
  1 572 1.78177655E-08
  1 573 1.96412393E-08
  1 574 2.15580374E-08
  1 575 2.09951457E-08
  1 576 2.08827150E-08
  1 577 2.20137111E-08
  1 578 2.45555833E-08
  1 579 2.28158404E-08
  1 580 2.19127931E-08
  1 581 1.98846806E-08
  1 582 1.94523164E-08
  1 583 1.87522284E-08
  1 584 2.14180438E-08
  1 585 2.20038975E-08
  1 586 2.18821972E-08
  1 587 1.99068737E-08
  1 588 1.97614204E-08
  1 589 2.07546268E-08
  1 590 2.17651583E-08
  1 591 2.08633490E-08
  1 592 2.01743511E-08
  1 593 2.09597409E-08
  1 594 2.14266389E-08
  1 595 2.34541633E-08
  1 596 2.52401815E-08
  1 597 2.52127913E-08
  1 598 2.35724679E-08
  1 599 2.53194988E-08
  1 600 2.62351664E-08
  1 601 1.18063941E-08
  1 602 1.28102140E-08
  1 603 1.61883185E-08
  1 604 1.67264820E-08
  1 605 1.74824719E-08
  1 606 1.55017209E-08
  1 607 1.45083000E-08
  1 608 1.34250809E-08
  1 609 1.42330266E-08
  1 610 1.54124921E-08
  1 611 1.69001646E-08
  1 612 1.59703852E-08
  1 613 1.42272506E-08
  1 614 1.51069721E-08
  1 615 1.63130964E-08
  1 616 1.67452967E-08
  1 617 1.61487120E-08
  1 618 1.59784535E-08
  1 619 1.44176094E-08
  1 620 1.54319566E-08
  1 621 1.64528221E-08
  1 622 1.63660053E-08
  1 623 1.51719429E-08
  1 624 1.66829813E-08
  1 625 1.74758115E-08
  1 626 1.83975130E-08
  1 627 1.92015855E-08
  1 628 2.01089765E-08
  1 629 1.87212095E-08
  1 630 1.78439293E-08
  1 631 1.76242286E-08
  1 632 1.95789880E-08
  1 633 2.07944439E-08
  1 634 2.10971314E-08
  1 635 2.01983541E-08
  1 636 2.06809350E-08
  1 637 1.99011735E-08
  1 638 1.95391944E-08
  1 639 1.99080835E-08
  1 640 1.98733844E-08
  1 641 1.82687075E-08
  1 642 1.84286799E-08
  1 643 1.97308153E-08
  1 644 1.88875302E-08
  1 645 1.88757295E-08
  1 646 1.96312052E-08
  1 647 1.98057113E-08
  1 648 1.69827869E-08
  1 649 1.70802347E-08
  1 650 1.73739542E-08
  1 651 1.89517437E-08
  1 652 1.80404942E-08
  1 653 1.84695942E-08
  1 654 1.73057911E-08
  1 655 1.71130301E-08
  1 656 1.50720369E-08
  1 657 1.57283373E-08
  1 658 1.71456898E-08
  1 659 1.79836537E-08
  1 660 1.68669767E-08
  1 661 1.62118742E-08
  1 662 1.49661852E-08
  1 663 1.27837126E-08
  1 664 1.32262844E-08
  1 665 1.37960588E-08
  1 666 1.38239416E-08
  1 667 1.36146102E-08
  1 668 1.65650853E-08
  1 669 1.76478929E-08
  1 670 1.89185098E-08
  1 671 1.96505616E-08
  1 672 2.14267741E-08
  1 673 2.15463784E-08
  1 674 2.27734511E-08
  1 675 2.31545618E-08
  1 676 2.38345509E-08
  1 677 2.27881117E-08
  1 678 2.10246267E-08
  1 679 1.92231289E-08
  1 680 1.98535616E-08
  1 681 2.04689647E-08
  1 682 2.08998539E-08
  1 683 2.05426029E-08
  1 684 1.96935648E-08
  1 685 1.89635623E-08
  1 686 2.05959509E-08
  1 687 2.14075478E-08
  1 688 2.02954604E-08
  1 689 1.97760711E-08
  1 690 2.04638823E-08
  1 691 2.05149982E-08
  1 692 2.13070555E-08
  1 693 2.41702220E-08
  1 694 2.50851853E-08
  1 695 2.49712068E-08
  1 696 2.46021957E-08
  1 697 2.58929032E-08
  1 698 2.56387359E-08
  1 699 2.65503018E-08
  1 700 2.55664426E-08
  1 701 1.80671849E-08
  1 702 1.83845887E-08
  1 703 1.66683824E-08
  1 704 1.56079755E-08
  1 705 1.65390884E-08
  1 706 1.69525849E-08
  1 707 1.78144938E-08
  1 708 1.83249210E-08
  1 709 1.66693923E-08
  1 710 1.48699394E-08
  1 711 1.60895995E-08
  1 712 1.77425573E-08
  1 713 1.71148387E-08
  1 714 1.66705079E-08
  1 715 1.61125785E-08
  1 716 1.58173444E-08
  1 717 1.49774692E-08
  1 718 1.55123588E-08
  1 719 1.44800846E-08
  1 720 1.48545429E-08
  1 721 1.45336971E-08
  1 722 1.69098616E-08
  1 723 1.89400048E-08
  1 724 2.12578819E-08
  1 725 1.95822059E-08
  1 726 1.89205623E-08
  1 727 1.82489634E-08
  1 728 1.95336273E-08
  1 729 2.11746163E-08
  1 730 2.24252614E-08
  1 731 2.06602560E-08
  1 732 1.91203901E-08
  1 733 2.01148525E-08
  1 734 1.97566654E-08
  1 735 1.91592306E-08
  1 736 1.87852420E-08
  1 737 1.95743653E-08
  1 738 1.80609456E-08
  1 739 1.93257423E-08
  1 740 2.01822306E-08
  1 741 2.12428481E-08
  1 742 1.97850447E-08
  1 743 1.94234889E-08
  1 744 1.78157958E-08
  1 745 1.78170782E-08
  1 746 1.73169873E-08
  1 747 1.80216959E-08
  1 748 1.87408599E-08
  1 749 1.93462178E-08
  1 750 1.87929425E-08
  1 751 1.88481066E-08
  1 752 1.76885666E-08
  1 753 1.49609923E-08
  1 754 1.49255343E-08
  1 755 1.77734668E-08
  1 756 1.86326788E-08
  1 757 1.71424857E-08
  1 758 1.68030892E-08
  1 759 1.58248139E-08
  1 760 1.39510357E-08
  1 761 1.33379415E-08
  1 762 1.45717012E-08
  1 763 1.47019390E-08
  1 764 1.50026800E-08
  1 765 1.52304287E-08
  1 766 1.70260930E-08
  1 767 1.84004994E-08
  1 768 1.99391799E-08
  1 769 1.96396564E-08
  1 770 2.09378493E-08
  1 771 2.08510410E-08
  1 772 2.21032247E-08
  1 773 2.29865456E-08
  1 774 2.35911412E-08
  1 775 2.03552902E-08
  1 776 1.96080056E-08
  1 777 2.02017454E-08
  1 778 2.03036644E-08
  1 779 1.92022890E-08
  1 780 1.94191313E-08
  1 781 1.90551939E-08
  1 782 1.80447667E-08
  1 783 1.93127636E-08
  1 784 2.01096079E-08
  1 785 2.05702583E-08
  1 786 1.89931767E-08
  1 787 1.85736256E-08
  1 788 1.75833961E-08
  1 789 2.04724616E-08
  1 790 2.23127670E-08
  1 791 2.42782635E-08
  1 792 2.35724820E-08
  1 793 2.39264926E-08
  1 794 2.39391537E-08
  1 795 2.62954350E-08
  1 796 2.65229467E-08
  1 797 2.56344936E-08
  1 798 2.51339502E-08
  1 799 2.52676472E-08
  1 800 2.41386200E-08
  1 801 1.70114436E-08
  1 802 1.87741965E-08
  1 803 1.88805726E-08
  1 804 1.93301049E-08
  1 805 1.93352296E-08
  1 806 1.84572578E-08
  1 807 1.52102113E-08
  1 808 1.48828731E-08
  1 809 1.49480711E-08
  1 810 1.72870775E-08
  1 811 1.68012857E-08
  1 812 1.62880910E-08
  1 813 1.44030121E-08
  1 814 1.47408397E-08
  1 815 1.38623442E-08
  1 816 1.48954921E-08
  1 817 1.50225024E-08
  1 818 1.45965642E-08
  1 819 1.52037850E-08
  1 820 1.88020510E-08
  1 821 2.04193171E-08
  1 822 1.88583559E-08
  1 823 1.81655981E-08
  1 824 1.82225737E-08
  1 825 1.89581256E-08
  1 826 2.04948256E-08
  1 827 2.26076046E-08
  1 828 2.15622769E-08
  1 829 1.99668854E-08
  1 830 1.85373519E-08
  1 831 1.87969811E-08
  1 832 1.94018683E-08
  1 833 2.02539303E-08
  1 834 1.88280469E-08
  1 835 1.81509068E-08
  1 836 1.84856547E-08
  1 837 2.06153959E-08
  1 838 2.17747279E-08
  1 839 2.15185312E-08
  1 840 1.78911587E-08
  1 841 1.62042508E-08
  1 842 1.58856923E-08
  1 843 1.64344252E-08
  1 844 1.64560484E-08
  1 845 1.88342948E-08
  1 846 1.89597094E-08
  1 847 1.79386115E-08
  1 848 1.72748878E-08
  1 849 1.72397069E-08
  1 850 1.57637322E-08
  1 851 1.53005065E-08
  1 852 1.65764513E-08
  1 853 1.68997946E-08
  1 854 1.75209527E-08
  1 855 1.71134588E-08
  1 856 1.67958115E-08
  1 857 1.43815653E-08
  1 858 1.42263295E-08
  1 859 1.39552807E-08
  1 860 1.61079654E-08
  1 861 1.54029117E-08
  1 862 1.56747647E-08
  1 863 1.64965119E-08
  1 864 1.94669641E-08
  1 865 1.87673085E-08
  1 866 1.87925038E-08
  1 867 1.97792750E-08
  1 868 2.03805579E-08
  1 869 1.97487387E-08
  1 870 2.10514921E-08
  1 871 2.26702774E-08
  1 872 2.17457544E-08
  1 873 2.11870957E-08
  1 874 2.06696585E-08
  1 875 2.04861936E-08
  1 876 1.93404246E-08
  1 877 1.96001777E-08
  1 878 1.85829606E-08
  1 879 1.83889199E-08
  1 880 1.78501281E-08
  1 881 1.89503921E-08
  1 882 1.90855489E-08
  1 883 1.82292469E-08
  1 884 1.58586329E-08
  1 885 1.68449406E-08
  1 886 1.92635120E-08
  1 887 2.13282882E-08
  1 888 2.24133352E-08
  1 889 2.44683806E-08
  1 890 2.42503001E-08
  1 891 2.41185881E-08
  1 892 2.53242922E-08
  1 893 2.71911899E-08
  1 894 2.66080601E-08
  1 895 2.59929462E-08
  1 896 2.46534391E-08
  1 897 2.37783900E-08
  1 898 2.44341702E-08
  1 899 2.58569669E-08
  1 900 2.52443771E-08
  1 901 1.97742023E-08
  1 902 1.99152066E-08
  1 903 1.85510446E-08
  1 904 1.68358579E-08
  1 905 1.41482756E-08
  1 906 1.47648804E-08
  1 907 1.69293793E-08
  1 908 1.79254363E-08
  1 909 1.65432527E-08
  1 910 1.68528328E-08
  1 911 1.63311978E-08
  1 912 1.49519177E-08
  1 913 1.48004757E-08
  1 914 1.68930116E-08
  1 915 1.68343998E-08
  1 916 1.66004746E-08
  1 917 1.73823970E-08
  1 918 1.83046176E-08
  1 919 1.79782263E-08
  1 920 1.79502087E-08
  1 921 1.81948170E-08
  1 922 1.84933993E-08
  1 923 2.01776088E-08
  1 924 2.16398454E-08
  1 925 2.30069313E-08
  1 926 2.15677351E-08
  1 927 2.02733172E-08
  1 928 1.92284935E-08
  1 929 2.12773332E-08
  1 930 2.01297758E-08
  1 931 1.93077787E-08
  1 932 1.85298139E-08
  1 933 2.00093924E-08
  1 934 1.94978238E-08
  1 935 2.11877337E-08
  1 936 2.12640189E-08
  1 937 1.93279717E-08
  1 938 1.60626599E-08
  1 939 1.48956297E-08
  1 940 1.48855823E-08
  1 941 1.62089647E-08
  1 942 1.87585052E-08
  1 943 1.85908063E-08
  1 944 1.73286619E-08
  1 945 1.55607185E-08
  1 946 1.57871411E-08
  1 947 1.49178511E-08
  1 948 1.55942105E-08
  1 949 1.51770657E-08
  1 950 1.65822281E-08
  1 951 1.68712707E-08
  1 952 1.72663403E-08
  1 953 1.65754143E-08
  1 954 1.74709335E-08
  1 955 1.62285212E-08
  1 956 1.47952234E-08
  1 957 1.47104423E-08
  1 958 1.60541916E-08
  1 959 1.65821775E-08
  1 960 1.84618612E-08
  1 961 1.98230478E-08
  1 962 1.89369235E-08
  1 963 1.81886073E-08
  1 964 1.96970685E-08
  1 965 2.03725272E-08
  1 966 2.00994584E-08
  1 967 2.10120552E-08
  1 968 2.24573805E-08
  1 969 2.30580096E-08
  1 970 2.29531438E-08
  1 971 2.32170269E-08
  1 972 2.28093642E-08
  1 973 2.16365324E-08
  1 974 1.86189641E-08
  1 975 1.83112268E-08
  1 976 1.90683862E-08
  1 977 1.94210007E-08
  1 978 1.68326837E-08
  1 979 1.66060954E-08
  1 980 1.49160415E-08
  1 981 1.46317218E-08
  1 982 1.57033539E-08
  1 983 1.93357418E-08
  1 984 1.97672904E-08
  1 985 2.13813756E-08
  1 986 2.34575687E-08
  1 987 2.50556530E-08
  1 988 2.52078656E-08
  1 989 2.61157176E-08
  1 990 2.68080440E-08
  1 991 2.58654744E-08
  1 992 2.52382389E-08
  1 993 2.42748259E-08
  1 994 2.55166566E-08
  1 995 2.53137328E-08
  1 996 2.51859360E-08
  1 997 2.39906174E-08
  1 998 2.52250704E-08
  1 999 2.34334275E-08
  1 1000 2.22760953E-08
  1 1001 1.54304891E-08
  1 1002 1.56065410E-08
  1 1003 1.55113851E-08
  1 1004 1.81346085E-08
  1 1005 1.78237127E-08
  1 1006 1.75395561E-08
  1 1007 1.78389003E-08
  1 1008 1.83032948E-08
  1 1009 1.65828427E-08
  1 1010 1.60547603E-08
  1 1011 1.69058366E-08
  1 1012 1.66120203E-08
  1 1013 1.66837125E-08
  1 1014 1.66615676E-08
  1 1015 1.79772065E-08
  1 1016 1.70989727E-08
  1 1017 1.66156119E-08
  1 1018 1.59200705E-08
  1 1019 1.94515101E-08
  1 1020 2.09026223E-08
  1 1021 2.15500336E-08
  1 1022 2.10396344E-08
  1 1023 2.20245305E-08
  1 1024 2.05423201E-08
  1 1025 2.09498877E-08
  1 1026 2.16048609E-08
  1 1027 2.03686271E-08
  1 1028 1.76019981E-08
  1 1029 1.76471560E-08
  1 1030 1.88491337E-08
  1 1031 1.96632577E-08
  1 1032 2.08407719E-08
  1 1033 2.05295271E-08
  1 1034 1.80197091E-08
  1 1035 1.50420923E-08
  1 1036 1.45709152E-08
  1 1037 1.57798855E-08
  1 1038 1.74824576E-08
  1 1039 1.68064417E-08
  1 1040 1.59456273E-08
  1 1041 1.60226439E-08
  1 1042 1.62638168E-08
  1 1043 1.44652407E-08
  1 1044 1.40188975E-08
  1 1045 1.34898015E-08
  1 1046 1.37599744E-08
  1 1047 1.49720702E-08
  1 1048 1.81422365E-08
  1 1049 1.81306980E-08
  1 1050 1.83041268E-08
  1 1051 1.77707555E-08
  1 1052 1.72778792E-08
  1 1053 1.54720939E-08
  1 1054 1.64399410E-08
  1 1055 1.64027156E-08
  1 1056 1.64564144E-08
  1 1057 1.72303107E-08
  1 1058 1.95203750E-08
  1 1059 2.08636829E-08
  1 1060 2.07419881E-08
  1 1061 1.99834559E-08
  1 1062 1.94117179E-08
  1 1063 2.17249620E-08
  1 1064 2.33097315E-08
  1 1065 2.53347687E-08
  1 1066 2.53259333E-08
  1 1067 2.56242646E-08
  1 1068 2.38382958E-08
  1 1069 2.50961993E-08
  1 1070 2.39093344E-08
  1 1071 2.18553036E-08
  1 1072 1.93668928E-08
  1 1073 1.99200217E-08
  1 1074 1.81452162E-08
  1 1075 1.69876564E-08
  1 1076 1.65909448E-08
  1 1077 1.55512078E-08
  1 1078 1.32276993E-08
  1 1079 1.36296705E-08
  1 1080 1.72610820E-08
  1 1081 2.05186514E-08
  1 1082 2.24942856E-08
  1 1083 2.26376965E-08
  1 1084 2.38801337E-08
  1 1085 2.52835580E-08
  1 1086 2.69213962E-08
  1 1087 2.70948249E-08
  1 1088 2.72861089E-08
  1 1089 2.50486901E-08
  1 1090 2.37738568E-08
  1 1091 2.48038397E-08
  1 1092 2.69012368E-08
  1 1093 2.62063972E-08
  1 1094 2.64013468E-08
  1 1095 2.62159984E-08
  1 1096 2.49677521E-08
  1 1097 2.33555990E-08
  1 1098 2.48032827E-08
  1 1099 2.45952430E-08
  1 1100 2.33149698E-08
  1 1101 1.83823968E-08
  1 1102 1.96380146E-08
  1 1103 2.02272496E-08
  1 1104 1.91431400E-08
  1 1105 1.82962698E-08
  1 1106 1.72888083E-08
  1 1107 1.74820538E-08
  1 1108 1.66679077E-08
  1 1109 1.72110809E-08
  1 1110 1.69747073E-08
  1 1111 1.67383265E-08
  1 1112 1.66351386E-08
  1 1113 1.79949111E-08
  1 1114 1.74536392E-08
  1 1115 1.80730302E-08
  1 1116 1.98094860E-08
  1 1117 2.10297433E-08
  1 1118 2.01919495E-08
  1 1119 2.17697422E-08
  1 1120 2.25716731E-08
  1 1121 2.16547016E-08
  1 1122 1.99750654E-08
  1 1123 2.06643336E-08
  1 1124 2.00301400E-08
  1 1125 1.88243633E-08
  1 1126 1.74468529E-08
  1 1127 1.81020857E-08
  1 1128 1.95031673E-08
  1 1129 2.01967301E-08
  1 1130 1.94010739E-08
  1 1131 1.77328327E-08
  1 1132 1.60018355E-08
  1 1133 1.37335162E-08
  1 1134 1.50642536E-08
  1 1135 1.64613704E-08
  1 1136 1.70215250E-08
  1 1137 1.53387488E-08
  1 1138 1.63503486E-08
  1 1139 1.45953664E-08
  1 1140 1.37889523E-08
  1 1141 1.33411246E-08
  1 1142 1.46706161E-08
  1 1143 1.30475627E-08
  1 1144 1.39195611E-08
  1 1145 1.63025217E-08
  1 1146 1.93460048E-08
  1 1147 2.00197776E-08
  1 1148 1.91896953E-08
  1 1149 1.76811488E-08
  1 1150 1.65470245E-08
  1 1151 1.64297659E-08
  1 1152 1.59310781E-08
  1 1153 1.72757765E-08
  1 1154 1.79396056E-08
  1 1155 1.90962256E-08
  1 1156 1.95472571E-08
  1 1157 2.11254128E-08
  1 1158 2.05716447E-08
  1 1159 2.18995351E-08
  1 1160 2.34743609E-08
  1 1161 2.49028771E-08
  1 1162 2.50879506E-08
  1 1163 2.71732934E-08
  1 1164 2.72525583E-08
  1 1165 2.59622850E-08
  1 1166 2.47434983E-08
  1 1167 2.44130311E-08
  1 1168 2.23734421E-08
  1 1169 2.09470543E-08
  1 1170 1.98192535E-08
  1 1171 1.88811413E-08
  1 1172 1.74176817E-08
  1 1173 1.62330609E-08
  1 1174 1.41690069E-08
  1 1175 1.31399949E-08
  1 1176 1.37481269E-08
  1 1177 1.60380293E-08
  1 1178 1.87802422E-08
  1 1179 2.00758935E-08
  1 1180 2.07361515E-08
  1 1181 2.25991510E-08
  1 1182 2.57579132E-08
  1 1183 2.56653241E-08
  1 1184 2.59606128E-08
  1 1185 2.59056419E-08
  1 1186 2.54679537E-08
  1 1187 2.27218911E-08
  1 1188 2.43114685E-08
  1 1189 2.52258370E-08
  1 1190 2.57029552E-08
  1 1191 2.45353645E-08
  1 1192 2.58351559E-08
  1 1193 2.57319679E-08
  1 1194 2.64277488E-08
  1 1195 2.60816553E-08
  1 1196 2.53868877E-08
  1 1197 2.40213077E-08
  1 1198 2.31533127E-08
  1 1199 2.35250724E-08
  1 1200 2.37613878E-08
  1 1201 1.82725652E-08
  1 1202 1.73974829E-08
  1 1203 1.82123799E-08
  1 1204 1.70564381E-08
  1 1205 1.55644383E-08
  1 1206 1.46856833E-08
  1 1207 1.62765680E-08
  1 1208 1.53670317E-08
  1 1209 1.63930651E-08
  1 1210 1.67357725E-08
  1 1211 1.74273194E-08
  1 1212 1.65694699E-08
  1 1213 1.88053460E-08
  1 1214 1.98635022E-08
  1 1215 2.08853930E-08
  1 1216 2.04334291E-08
  1 1217 1.98657031E-08
  1 1218 1.90361185E-08
  1 1219 1.92358043E-08
  1 1220 1.96970655E-08
  1 1221 1.87510558E-08
  1 1222 1.77028436E-08
  1 1223 1.57836207E-08
  1 1224 1.72884868E-08
  1 1225 1.91827403E-08
  1 1226 2.00372109E-08
  1 1227 1.70676619E-08
  1 1228 1.63283456E-08
  1 1229 1.41273694E-08
  1 1230 1.27576113E-08
  1 1231 1.29855280E-08
  1 1232 1.59515636E-08
  1 1233 1.51498252E-08
  1 1234 1.37104077E-08
  1 1235 1.33464478E-08
  1 1236 1.42069511E-08
  1 1237 1.40653261E-08
  1 1238 1.36467986E-08
  1 1239 1.21494462E-08
  1 1240 1.09423725E-08
  1 1241 1.17544544E-08
  1 1242 1.46190908E-08
  1 1243 1.79427432E-08
  1 1244 1.90133677E-08
  1 1245 1.73344822E-08
  1 1246 1.59992863E-08
  1 1247 1.67799449E-08
  1 1248 1.65725976E-08
  1 1249 1.62785004E-08
  1 1250 1.71249552E-08
  1 1251 1.76294651E-08
  1 1252 1.61877149E-08
  1 1253 1.79173419E-08
  1 1254 2.04188960E-08
  1 1255 2.17776858E-08
  1 1256 2.10297863E-08
  1 1257 2.26894138E-08
  1 1258 2.36974974E-08
  1 1259 2.63220338E-08
  1 1260 2.69947353E-08
  1 1261 2.68588206E-08
  1 1262 2.44440349E-08
  1 1263 2.38931750E-08
  1 1264 2.27511337E-08
  1 1265 2.23563459E-08
  1 1266 2.06938454E-08
  1 1267 1.84713675E-08
  1 1268 1.71039867E-08
  1 1269 1.66036514E-08
  1 1270 1.55358319E-08
  1 1271 1.35783609E-08
  1 1272 1.39599505E-08
  1 1273 1.29840124E-08
  1 1274 1.39128403E-08
  1 1275 1.60282775E-08
  1 1276 1.97413934E-08
  1 1277 1.96354585E-08
  1 1278 2.13139605E-08
  1 1279 2.23734074E-08
  1 1280 2.43699091E-08
  1 1281 2.52140769E-08
  1 1282 2.64494053E-08
  1 1283 2.41083300E-08
  1 1284 2.20478141E-08
  1 1285 2.18653557E-08
  1 1286 2.33173596E-08
  1 1287 2.39221780E-08
  1 1288 2.36365533E-08
  1 1289 2.37618192E-08