# File generated by Flopy version 3.5.0 on 01/25/2024 at 13:15:34.
BEGIN options
  PRINT_OPTION  summary
  COMPLEXITY  complex
END options

BEGIN linear
  LINEAR_ACCELERATION  bicgstab
END linear

