# File generated by Flopy version 3.5.0 on 01/23/2024 at 11:34:46.
BEGIN options
END options

BEGIN dimensions
  MAXBOUND  20
END dimensions

BEGIN period  1
  1 4901 1.34000000E+01 8.64000000E-01 1.34000000E+01
  1 4902 1.34000000E+01 8.64000000E-01 1.34000000E+01
  1 4903 1.34000000E+01 8.64000000E-01 1.34000000E+01
  1 4904 1.34000000E+01 8.64000000E-01 1.34000000E+01
  1 4905 1.34000000E+01 8.64000000E-01 1.34000000E+01
  1 4906 1.34000000E+01 8.64000000E-01 1.34000000E+01
  1 4907 1.34000000E+01 8.64000000E-01 1.34000000E+01
  1 4908 1.34000000E+01 8.64000000E-01 1.34000000E+01
  1 4909 1.34000000E+01 8.64000000E-01 1.34000000E+01
  1 4910 1.34000000E+01 8.64000000E-01 1.34000000E+01
  1 4911 1.34000000E+01 8.64000000E-01 1.34000000E+01
  1 4912 1.34000000E+01 8.64000000E-01 1.34000000E+01
  1 4913 1.34000000E+01 8.64000000E-01 1.34000000E+01
  1 4914 1.34000000E+01 8.64000000E-01 1.34000000E+01
  1 4915 1.34000000E+01 8.64000000E-01 1.34000000E+01
  1 4916 1.34000000E+01 8.64000000E-01 1.34000000E+01
  1 4917 1.34000000E+01 8.64000000E-01 1.34000000E+01
  1 4918 1.34000000E+01 8.64000000E-01 1.34000000E+01
  1 4919 1.34000000E+01 8.64000000E-01 1.34000000E+01
  1 4920 1.34000000E+01 8.64000000E-01 1.34000000E+01
END period  1

