# File generated by Flopy version 3.5.0 on 01/31/2024 at 14:13:30.
BEGIN griddata
  strt
    INTERNAL  FACTOR  1.0
        15.00000000      15.00000000      15.00000000      15.00000000      15.00000000      15.00000000      15.00000000      15.00000000      15.00000000      15.00000000      15.00000000      15.00000000      15.00000000      15.00000000      15.00000000      15.00000000      15.00000000      15.00000000      15.00000000      15.00000000
        15.00000000      15.00000000      15.00000000      15.00000000      15.00000000      15.00000000      15.00000000      15.00000000      15.00000000      15.00000000      15.00000000      15.00000000      15.00000000      15.00000000      15.00000000      15.00000000      15.00000000      15.00000000      15.00000000      15.00000000
        15.00000000      15.00000000      15.00000000      15.00000000      15.00000000      15.00000000      15.00000000      15.00000000      15.00000000      15.00000000      15.00000000      15.00000000      15.00000000      15.00000000      15.00000000      15.00000000      15.00000000      15.00000000      15.00000000      15.00000000
        15.00000000      15.00000000      15.00000000      15.00000000      15.00000000      15.00000000      15.00000000      15.00000000      15.00000000      15.00000000      15.00000000      15.00000000      15.00000000      15.00000000      15.00000000      15.00000000      15.00000000      15.00000000      15.00000000      15.00000000
        15.00000000      15.00000000      15.00000000      15.00000000      15.00000000      15.00000000      15.00000000      15.00000000      15.00000000      15.00000000      15.00000000      15.00000000      15.00000000      15.00000000      15.00000000      15.00000000      15.00000000      15.00000000      15.00000000      15.00000000
        15.07185701      15.07921586      15.07097256      15.06630199      15.05619626      15.05722388      15.05943507      15.06127027      15.05007694      15.03831007      15.03873980      15.04577284      15.05142864      15.05539879      15.06423878      15.06766594      15.08534521      15.08717070      15.07939018      15.06897791
        15.06088709      15.06481475      15.06818627      15.06696300      15.06010938      15.05367642      15.05147515      15.04892937      15.04534280      15.04703772      15.05116457      15.05646625      15.07122949      15.07676054      15.09055844      15.09708293      15.10678192      15.10546828      15.10995019      15.11161376
        15.10608697      15.10817583      15.13119499      15.14909536      15.16571430      15.18257490      15.16271699      15.16305243      15.17859458      15.21114520      15.22662261      15.21632315      15.24635826      15.24266904      15.24576663      15.20432515      15.16227813      15.12794283      15.14548076      15.14217958
        15.15236835      15.14749441      15.14141280      15.12899130      15.12964503      15.14015553      15.13401642      15.13978905      15.14262528      15.11340490      15.09103089      15.08000895      15.08003891      15.08030275      15.08577507      15.08246932      15.07477992      15.06477540      15.05848911      15.04808549
        15.04829398      15.04528479      15.03483781      15.02993721      15.02638686      15.02808534      15.03059036      15.03509826      15.03861552      15.04041252      15.03996765      15.03986732      15.03198558      15.02877929      15.03072204      15.03472745      15.04081061      15.03951664      15.03594005      15.03157801
        15.13045555      15.13807856      15.13910988      15.13296875      15.12214888      15.11578133      15.11566303      15.11576236      15.10798961      15.08876826      15.08456543      15.08971931      15.10035661      15.10826893      15.12314706      15.13119884      15.14655880      15.15659704      15.14851036      15.13900872
        15.12266737      15.12190896      15.12647060      15.12587487      15.11847013      15.11081986      15.10338094      15.10083269      15.09687349      15.09678783      15.10411917      15.10902409      15.12555004      15.14411682      15.16056955      15.17445596      15.18467834      15.19689354      15.20587392      15.22450538
        15.22362584      15.23266742      15.25057992      15.28136289      15.30910065      15.35235538      15.34271641      15.33607082      15.34936868      15.36889927      15.40537704      15.40689072      15.43907660      15.45046033      15.42584169      15.38382993      15.33242318      15.27578065      15.27693246      15.27998222
        15.27599254      15.28029425      15.26481057      15.25138958      15.24707131      15.26203608      15.26133614      15.25877921      15.26018444      15.22711485      15.18831751      15.16849643      15.16263654      15.15828052      15.15445121      15.15193563      15.14430840      15.13056516      15.11760051      15.10193725
        15.09001310      15.09035324      15.07505869      15.06431076      15.05812728      15.05613158      15.05961877      15.06810627      15.07139893      15.07378798      15.07234207      15.07335975      15.06622702      15.05798603      15.05854392      15.06352327      15.06914403      15.07059763      15.06765430      15.06375108
        15.18178605      15.18528818      15.19476667      15.19517329      15.18830522      15.17761702      15.17137617      15.16685873      15.16312921      15.14794858      15.13935978      15.13898176      15.14877101      15.16062637      15.17283056      15.18732641      15.19672246      15.21178098      15.21030899      15.20243932
        15.18653457      15.17539319      15.17365181      15.17547036      15.17257361      15.16709162      15.15914657      15.15223511      15.14865890      15.14655744      15.15171762      15.15921429      15.17305442      15.19975924      15.21668590      15.23596289      15.24765576      15.27078978      15.29482895      15.32604623
        15.34084328      15.35730320      15.37307123      15.40790274      15.45252167      15.50530405      15.52706236      15.51140250      15.52076394      15.52958769      15.55714918      15.57222644      15.60068988      15.61855576      15.58392583      15.53422236      15.49174465      15.43158066      15.40259094      15.40158929
        15.38709113      15.38805944      15.37947895      15.36764192      15.36224898      15.36040412      15.36634421      15.35978365      15.35987371      15.33573705      15.29069060      15.25746583      15.24562780      15.23015489      15.21930796      15.21174495      15.20384863      15.19253674      15.17910595      15.15895717
        15.13688045      15.12961709      15.11826050      15.10222005      15.09515093      15.08768891      15.08996745      15.09810726      15.10311846      15.10375586      15.10205830      15.09991588      15.09915857      15.08903336      15.08628947      15.08771063      15.09158457      15.09418420      15.09603515      15.09314976
        15.23072178      15.22738255      15.23851622      15.24480393      15.24457681      15.23442238      15.22685205      15.21451445      15.21194968      15.20337703      15.19676127      15.19383247      15.19904418      15.20964419      15.22157867      15.23481531      15.24429159      15.25539451      15.26214764      15.25410157
        15.24556368      15.22801531      15.21841187      15.21694572      15.22119148      15.22052379      15.21881736      15.20534264      15.19942063      15.19599032      15.19646926      15.20813775      15.22162830      15.24492997      15.26434186      15.28179361      15.30090094      15.33036162      15.36932358      15.41029960
        15.44678300      15.46727173      15.49200685      15.52482370      15.58312267      15.64000361      15.68562320      15.68030240      15.68031933      15.68772993      15.70090178      15.71924814      15.73711788      15.74722289      15.72361556      15.66728782      15.62556122      15.58098199      15.52563874      15.51220462
        15.49428097      15.48161775      15.48242488      15.47657626      15.47099880      15.46298945      15.45825754      15.45107568      15.44772905      15.43565489      15.39589946      15.35253478      15.32553480      15.30196110      15.28068813      15.27080179      15.25884075      15.24776565      15.23408394      15.21558022
        15.18716394      15.16673346      15.15703617      15.14208208      15.13194952      15.12464799      15.12076697      15.12490179      15.13030104      15.13055716      15.13110233      15.12829136      15.12837457      15.12077031      15.11330393      15.11133973      15.11301357      15.11562696      15.12015029      15.12148530
        15.27096426      15.27031228      15.27604069      15.28544302      15.28742467      15.28130470      15.27305897      15.26164414      15.25517792      15.25203404      15.24604958      15.24648962      15.24748932      15.25572252      15.26431359      15.27299851      15.28382631      15.29326867      15.30256539      15.29984158
        15.29210909      15.27837452      15.26494581      15.26108953      15.26583414      15.27158209      15.27347186      15.26585423      15.25259350      15.24865828      15.24277354      15.25484287      15.26941336      15.28784187      15.30554919      15.32083340      15.34555497      15.38471433      15.43605814      15.48630559
        15.52978485      15.56064060      15.59872903      15.63808086      15.69532805      15.75414361      15.79722700      15.82256824      15.82355024      15.82754816      15.82994758      15.84276230      15.85181884      15.85829973      15.83832217      15.78821637      15.73351543      15.70420819      15.64457766      15.61236612
        15.59301682      15.57633583      15.57751203      15.58146903      15.57101527      15.56659983      15.55222191      15.54681785      15.53874685      15.53187858      15.50036189      15.45210705      15.40913365      15.38359245      15.34649380      15.33037668      15.31402720      15.29779260      15.28188362      15.26583779
        15.23824533      15.20826624      15.19116137      15.17825881      15.16554894      15.15850968      15.15209726      15.15021043      15.15324724      15.15356897      15.15654511      15.15664040      15.15531260      15.15008089      15.13988814      15.13457586      15.13499097      15.13749282      15.14271182      15.14730492
        15.30896599      15.31214107      15.31183466      15.31807596      15.32075201      15.31765406      15.30913051      15.30183114      15.29333989      15.29294330      15.28918795      15.28823579      15.28927841      15.29397825      15.29937348      15.30590203      15.31581676      15.32418016      15.33169458      15.33445207
        15.32795285      15.31911653      15.30900880      15.30591825      15.31186948      15.31862874      15.32028935      15.32214457      15.31187896      15.30583858      15.30020244      15.30104155      15.31661963      15.32845788      15.34467485      15.36077465      15.38919493      15.43114500      15.49513424      15.55181239
        15.60065570      15.64038450      15.68985792      15.73721300      15.79397958      15.84548019      15.88799483      15.92629858      15.94489015      15.94644651      15.94960398      15.94467379      15.95034904      15.95034280      15.93134359      15.88410444      15.82209019      15.78447023      15.73871957      15.69462451
        15.68166559      15.66710219      15.66698271      15.67746263      15.67298399      15.66322611      15.65899710      15.64815076      15.64032269      15.63077154      15.60727738      15.55597089      15.50212936      15.47270342      15.43182031      15.39670561      15.37429993      15.34769209      15.32886823      15.30992821
        15.28753529      15.25350399      15.22679602      15.21059611      15.19668074      15.18521482      15.18037886      15.17419604      15.17394486      15.17474341      15.17772316      15.18128815      15.18160685      15.17661111      15.16577082      15.15783979      15.15659677      15.16005746      15.16385105      15.16821235
        15.35537863      15.35296154      15.34885154      15.34707489      15.34903153      15.34668414      15.34092770      15.33553856      15.32820037      15.32543755      15.32456825      15.32099411      15.32263699      15.32465325      15.32780202      15.33324331      15.34027058      15.34762201      15.35367402      15.35746056
        15.35591868      15.35064954      15.34539154      15.34688525      15.35380772      15.35958804      15.36114528      15.36538710      15.36639260      15.36317319      15.36049103      15.35366696      15.36206859      15.37001581      15.38408622      15.40355798      15.43231662      15.47919332      15.54495220      15.60946274
        15.66210005      15.71095874      15.76837939      15.82896568      15.88009581      15.92507228      15.96715490      16.00699424      16.03813245      16.05032006      16.05386741      16.04452443      16.03388146      16.02826268      16.00781910      15.96063335      15.89329127      15.84064690      15.79674862      15.75750164
        15.75033670      15.74747413      15.74688570      15.76111664      15.76883146      15.76253751      15.76576659      15.75539151      15.74099712      15.73396916      15.71060145      15.66819945      15.60315507      15.56276148      15.52799726      15.48153885      15.44531582      15.40841039      15.37844184      15.35583672
        15.33474308      15.30026426      15.26676411      15.24549906      15.22724691      15.21132096      15.20338204      15.19753680      15.19348661      15.19640379      15.19754584      15.20296088      15.20436613      15.20153690      15.19046460      15.18121352      15.17704505      15.18158750      15.18288351      15.18573982
        15.40451302      15.39355486      15.38590200      15.37840287      15.37396888      15.37203946      15.36764787      15.36508488      15.36072276      15.35463569      15.35174588      15.34966790      15.34834466      15.35053432      15.35168911      15.35666868      15.36092744      15.36648104      15.36998719      15.37340656
        15.37513805      15.37535632      15.37475361      15.37962131      15.38531410      15.39257227      15.39595887      15.40124666      15.40919587      15.41259913      15.41241967      15.40770253      15.40489958      15.41171906      15.42419536      15.44570767      15.47574653      15.52410264      15.58315789      15.65358633
        15.71393354      15.77608570      15.84355569      15.90828390      15.95138381      15.99706151      16.04015527      16.08343731      16.11303377      16.13428848      16.14361446      16.14491590      16.12212438      16.10370782      16.07767166      16.02371337      15.95121317      15.88435225      15.82871471      15.79049738
        15.79529514      15.81079947      15.82114960      15.83113050      15.84755739      15.85634759      15.86247813      15.85904134      15.83581992      15.82343556      15.80593918      15.77367993      15.71636068      15.65433875      15.62228544      15.57464472      15.53151034      15.47977991      15.43771775      15.40488198
        15.38449592      15.34869382      15.31180234      15.28509944      15.26072261      15.23886699      15.22578197      15.22110711      15.21562471      15.21730774      15.21969268      15.22336931      15.22640246      15.22544800      15.21571804      15.20410292      15.19867503      15.19985736      15.20086568      15.20018514
        15.45301396      15.43301221      15.42096193      15.41032375      15.40138864      15.39581810      15.39142214      15.38912150      15.38977447      15.38322588      15.37635456      15.37334482      15.37102520      15.37257982      15.37448555      15.37672506      15.38000045      15.38135561      15.38389501      15.38602095
        15.39015608      15.39398852      15.39894291      15.40455070      15.41089040      15.41616595      15.42361070      15.43155067      15.44349138      15.45124290      15.45547365      15.45282660      15.44788417      15.45177861      15.46687016      15.48662997      15.51487692      15.55750042      15.61392178      15.68226055
        15.75244806      15.82851952      15.91026288      15.97292930      16.01630178      16.05929929      16.10547961      16.15481235      16.18671304      16.20992016      16.22924111      16.23412548      16.21979871      16.18680618      16.15216311      16.08730060      16.00566061      15.92502432      15.84188231      15.77909375
        15.82155451      15.85973019      15.88852847      15.90132833      15.91913105      15.93586589      15.94332041      15.94523967      15.92498521      15.89935348      15.88834913      15.85749851      15.82027348      15.75338448      15.70825508      15.66225362      15.61805717      15.56229376      15.50958205      15.46098270
        15.43263264      15.39952013      15.35864930      15.33295318      15.30065851      15.27013861      15.25044905      15.24524288      15.24110192      15.23981985      15.24299946      15.24442077      15.24909936      15.24980616      15.24273878      15.22898712      15.21974367      15.21615724      15.21794364      15.21633988
        15.49806286      15.47431182      15.45249150      15.44025168      15.43016741      15.42102165      15.41489449      15.41099550      15.41187336      15.40891461      15.40027284      15.39443245      15.39182629      15.39159341      15.39454960      15.39580913      15.39767355      15.39667008      15.39682941      15.39539984
        15.40389911      15.41101832      15.41848660      15.42478973      15.43164180      15.43647668      15.44676188      15.45868133      15.47022400      15.48045578      15.48820929      15.48962457      15.48807682      15.49052629      15.50482625      15.52543331      15.54756039      15.58619629      15.63940511      15.70004840
        15.77526864      15.86884084      15.96285358      16.02854117      16.06992863      16.11283508      16.16584795      16.22220242      16.25796610      16.28485520      16.30863039      16.31605433      16.31102519      16.28149131      16.23541290      16.17112654      16.07008532      15.97166731      15.84430521      15.66480112
        15.83963137      15.91233356      15.95154700      15.97755551      15.99006159      16.00574668      16.00915915      16.01033351      16.00147446      15.97409821      15.95670994      15.93092700      15.89704805      15.84318907      15.78585873      15.74274437      15.68953755      15.63997303      15.58456901      15.52910698
        15.47989640      15.45080840      15.40558624      15.38131557      15.34712024      15.30717141      15.27959410      15.26891038      15.26749151      15.26549634      15.26708906      15.26836517      15.27260526      15.27504124      15.27122703      15.25741593      15.24285131      15.23444663      15.23361392      15.23450494
        15.54520333      15.51996713      15.48704384      15.46758774      15.45592730      15.44626902      15.43794986      15.43180207      15.42851796      15.42846774      15.42138081      15.41405696      15.41064198      15.40884473      15.41113487      15.41294199      15.41284036      15.41272264      15.41259655      15.41460243
        15.42074181      15.42730155      15.43462415      15.44179811      15.44876890      15.45600980      15.46835151      15.48236002      15.49356132      15.50431031      15.51314110      15.51938618      15.52301305      15.52775634      15.54013847      15.55998536      15.57746516      15.60902800      15.65953228      15.71586724
        15.78869914      15.88993028      15.99927933      16.07463556      16.11916799      16.16239495      16.21953820      16.27747347      16.32304218      16.35281441      16.37955449      16.39117681      16.38892047      16.37221519      16.32953229      16.26839353      16.16644290      16.06079840      15.97134249      15.90147569
        15.94721544      15.98841842      16.02410166      16.05146264      16.06496617      16.07050469      16.06960723      16.06052558      16.06249311      16.04330876      16.01861824      15.99835520      15.96358488      15.91794455      15.86221716      15.81740716      15.75871863      15.70742905      15.65554322      15.60254285
        15.53901053      15.49794435      15.45372418      15.42021386      15.39421605      15.34928227      15.31395217      15.29366487      15.29186383      15.29061150      15.29230715      15.29365022      15.29585805      15.29814680      15.29796845      15.28719168      15.26996037      15.25623051      15.25046936      15.25263423
        15.59111645      15.56590123      15.52723928      15.49425634      15.47984787      15.47013412      15.46035624      15.45189678      15.44547028      15.44304532      15.43872761      15.43116669      15.42714097      15.42434817      15.42478947      15.42632637      15.42648849      15.42673583      15.42811372      15.43011439
        15.43533811      15.44109770      15.44839305      15.45601126      15.46418876      15.47419268      15.48817180      15.50304634      15.51470760      15.52441722      15.53399316      15.54369831      15.55231801      15.56209333      15.57209722      15.58679850      15.60465705      15.63077087      15.67631176      15.73194962
        15.79807521      15.90675710      16.03131673      16.11131918      16.16261372      16.20620322      16.26076430      16.32733441      16.38231536      16.41377984      16.43883878      16.45328309      16.45459850      16.44745334      16.42159314      16.36671847      16.27898323      16.16664236      16.09297221      16.04758028
        16.05527506      16.07224203      16.10045383      16.11803401      16.13206176      16.13047943      16.12645088      16.11577602      16.11488200      16.10829605      16.07940187      16.06059950      16.03039894      15.99006606      15.93683736      15.89156250      15.82641160      15.76712563      15.71729572      15.67048230
        15.60882520      15.54823385      15.50077800      15.45827173      15.43534520      15.39428077      15.35110191      15.32462570      15.31416107      15.31333859      15.31467180      15.31770979      15.31797726      15.31967593      15.31924644      15.31426942      15.29871129      15.28307474      15.27177329      15.27079936
        15.62861057      15.61025553      15.56903729      15.52682807      15.50387128      15.49463412      15.48330404      15.47269423      15.46291224      15.45743683      15.45368134      15.44673229      15.44085665      15.43782081      15.43599740      15.43700732      15.43794729      15.43843561      15.44088665      15.44357599
        15.44690381      15.45272616      15.45854287      15.46674307      15.47714700      15.49051170      15.50523590      15.52106908      15.53199475      15.54384491      15.55386766      15.56511687      15.57567103      15.58960011      15.60080413      15.61331663      15.63039321      15.65267332      15.69057184      15.74693632
        15.81422460      15.92356399      16.04822227      16.13691738      16.19981000      16.25184788      16.30350196      16.37502625      16.43056302      16.46913787      16.48999047      16.50297899      16.50893604      16.50771288      16.49607686      16.45774063      16.38601123      16.27690254      16.19380199      16.15422886
        16.14896886      16.15395412      16.16660825      16.17785262      16.18498181      16.18429636      16.17681866      16.17147613      16.16419218      16.16887994      16.14452448      16.11798958      16.09475113      16.06108793      16.01383296      15.96709634      15.89576729      15.82296649      15.77592035      15.72723456
        15.67778519      15.60587447      15.55076489      15.50466800      15.47363351      15.43805173      15.38956454      15.35560205      15.33942946      15.33562400      15.33471479      15.33761544      15.33766591      15.33762229      15.33654105      15.33519367      15.32508661      15.31016708      15.29820348      15.29036689
        15.65582773      15.64872501      15.61319376      15.56404246      15.53179201      15.51839767      15.50854175      15.49549694      15.48301765      15.47320905      15.46816938      15.46144821      15.45442829      15.44932461      15.44653457      15.44596968      15.44737333      15.44864953      15.45116535      15.45415422
        15.45658612      15.46186265      15.46704510      15.47483767      15.48663914      15.50211496      15.51950016      15.53568740      15.54754578      15.56074005      15.57208442      15.58312621      15.59629942      15.60987559      15.62472375      15.63756721      15.65386021      15.67447608      15.70627819      15.75746108
        15.82867563      15.93658498      16.06282455      16.15891955      16.22829983      16.28963109      16.34849077      16.42154977      16.48027289      16.51789588      16.53793921      16.54531215      16.55724256      16.55823009      16.55641981      16.53309535      16.48173033      16.38432244      16.28368753      16.23686016
        16.22914306      16.22553863      16.22270525      16.22839197      16.22853185      16.22978394      16.22547004      16.22241737      16.21659478      16.21722743      16.20637229      16.17548597      16.15417723      16.12020000      16.08027380      16.03482683      15.96853536      15.87880885      15.82849548      15.77936609
        15.74106255      15.67237261      15.60456613      15.55735032      15.51652881      15.48120962      15.43233147      15.38624825      15.36621555      15.35837831      15.35385618      15.35314145      15.35372168      15.35232742      15.35230551      15.35100608      15.34785213      15.33645348      15.32675062      15.31697675
        15.67739070      15.67530197      15.65376551      15.60716277      15.56588093      15.54177104      15.53143449      15.51909379      15.50677064      15.49269817      15.48358071      15.47572270      15.46816484      15.46077069      15.45675957      15.45486762      15.45556114      15.45764364      15.45946989      15.46232617
        15.46511604      15.46946760      15.47458667      15.48143784      15.49286283      15.50942642      15.53042236      15.54761617      15.56164896      15.57488823      15.58804782      15.59905102      15.61228924      15.62544977      15.64226462      15.65828874      15.67501289      15.69428753      15.72018549      15.76830685
        15.83805745      15.94362977      16.07148353      16.17134836      16.24793926      16.32149293      16.39241295      16.46524344      16.52311491      16.55593434      16.57961982      16.59006229      16.60032803      16.60750514      16.60611479      16.59351291      16.55732691      16.48998578      16.37912623      16.31624769
        16.29383560      16.29217313      16.27662447      16.27353946      16.26692843      16.26880654      16.27062198      16.26987648      16.26469587      16.25721514      16.25400358      16.23119305      16.20515019      16.17181511      16.12775853      16.08672805      16.03616175      15.94641001      15.87258039      15.82542921
        15.78575671      15.73113701      15.65745903      15.60982344      15.56442796      15.52379157      15.47706388      15.42248893      15.39127414      15.38111380      15.37296406      15.36818294      15.36747130      15.36627700      15.36653762      15.36621213      15.36591117      15.36050012      15.35274444      15.34706837
        15.69384125      15.69275185      15.68139646      15.64566358      15.60165317      15.56794750      15.54862857      15.53829109      15.52836498      15.51536251      15.50126091      15.49122233      15.48158695      15.47333010      15.46640606      15.46410735      15.46326753      15.46545443      15.46689226      15.46943301
        15.47238238      15.47622876      15.48131126      15.48768305      15.49843972      15.51405042      15.53722175      15.55848716      15.57446716      15.58795511      15.60116299      15.61242217      15.62457998      15.63871918      15.65533217      15.67401204      15.69136484      15.70926000      15.73436195      15.77988135
        15.84566412      15.94269988      16.07244136      16.17758130      16.25855564      16.33620765      16.41751820      16.49584402      16.55205624      16.58813591      16.61316598      16.62958354      16.63960332      16.65336982      16.65358041      16.64668179      16.62117727      16.58395365      16.48753619      16.39703606
        16.35576818      16.35049337      16.33495990      16.32028042      16.31124388      16.30443906      16.31105855      16.31383201      16.30997425      16.29796143      16.29252878      16.27664398      16.24886172      16.21400934      16.16427724      16.12123722      16.08398079      16.01305552      15.91834256      15.85818898
        15.81834279      15.77360855      15.70731526      15.65358425      15.61044801      15.56237016      15.51716062      15.46125735      15.41885738      15.40288025      15.39237021      15.38319186      15.38121905      15.38036467      15.38084422      15.38187779      15.38198323      15.38060925      15.37637989      15.37327306
        15.70650456      15.70446132      15.69702554      15.67130670      15.63173249      15.59406568      15.56644039      15.55292940      15.54426330      15.53540177      15.52121147      15.50797861      15.49546176      15.48580605      15.47685948      15.47270950      15.47111398      15.47173245      15.47360010      15.47544987
        15.47917382      15.48289695      15.48743689      15.49321398      15.50313856      15.51757828      15.54166610      15.56727340      15.58517505      15.59926817      15.61255542      15.62426025      15.63600108      15.64899257      15.66566186      15.68522313      15.70385503      15.72156703      15.74703574      15.79084464