# File generated by Flopy version 3.5.0 on 02/13/2024 at 18:24:54.
BEGIN options
  SAVE_FLOWS
END options

BEGIN griddata
  iconvert
    CONSTANT  1
  ss
    CONSTANT  1.00000000E-05
  sy
    CONSTANT       0.15000000
END griddata

BEGIN period  1
  TRANSIENT
END period  1

BEGIN period  2
  TRANSIENT
END period  2

BEGIN period  3
  TRANSIENT
END period  3

BEGIN period  4
  TRANSIENT
END period  4

BEGIN period  5
  TRANSIENT
END period  5

BEGIN period  6
  TRANSIENT
END period  6

BEGIN period  7
  TRANSIENT
END period  7

BEGIN period  8
  TRANSIENT
END period  8

BEGIN period  9
  TRANSIENT
END period  9

BEGIN period  10
  TRANSIENT
END period  10

BEGIN period  11
  TRANSIENT
END period  11

BEGIN period  12
  TRANSIENT
END period  12

BEGIN period  13
  TRANSIENT
END period  13

BEGIN period  14
  TRANSIENT
END period  14

BEGIN period  15
  TRANSIENT
END period  15

BEGIN period  16
  TRANSIENT
END period  16

BEGIN period  17
  TRANSIENT
END period  17

BEGIN period  18
  TRANSIENT
END period  18

BEGIN period  19
  TRANSIENT
END period  19

BEGIN period  20
  TRANSIENT
END period  20

BEGIN period  21
  TRANSIENT
END period  21

BEGIN period  22
  TRANSIENT
END period  22

BEGIN period  23
  TRANSIENT
END period  23

BEGIN period  24
  TRANSIENT
END period  24

BEGIN period  25
  TRANSIENT
END period  25

BEGIN period  26
  TRANSIENT
END period  26

BEGIN period  27
  TRANSIENT
END period  27

BEGIN period  28
  TRANSIENT
END period  28

BEGIN period  29
  TRANSIENT
END period  29

BEGIN period  30
  TRANSIENT
END period  30

BEGIN period  31
  TRANSIENT
END period  31

BEGIN period  32
  TRANSIENT
END period  32

BEGIN period  33
  TRANSIENT
END period  33

BEGIN period  34
  TRANSIENT
END period  34

BEGIN period  35
  TRANSIENT
END period  35

BEGIN period  36
  TRANSIENT
END period  36

BEGIN period  37
  TRANSIENT
END period  37

BEGIN period  38
  TRANSIENT
END period  38

BEGIN period  39
  TRANSIENT
END period  39

BEGIN period  40
  TRANSIENT
END period  40

BEGIN period  41
  TRANSIENT
END period  41

BEGIN period  42
  TRANSIENT
END period  42

BEGIN period  43
  TRANSIENT
END period  43

BEGIN period  44
  TRANSIENT
END period  44

BEGIN period  45
  TRANSIENT
END period  45

BEGIN period  46
  TRANSIENT
END period  46

BEGIN period  47
  TRANSIENT
END period  47

BEGIN period  48
  TRANSIENT
END period  48

BEGIN period  49
  TRANSIENT
END period  49

BEGIN period  50
  TRANSIENT
END period  50

BEGIN period  51
  TRANSIENT
END period  51

BEGIN period  52
  TRANSIENT
END period  52

BEGIN period  53
  TRANSIENT
END period  53

BEGIN period  54
  TRANSIENT
END period  54

BEGIN period  55
  TRANSIENT
END period  55

BEGIN period  56
  TRANSIENT
END period  56

BEGIN period  57
  TRANSIENT
END period  57

BEGIN period  58
  TRANSIENT
END period  58

BEGIN period  59
  TRANSIENT
END period  59

BEGIN period  60
  TRANSIENT
END period  60

BEGIN period  61
  TRANSIENT
END period  61

BEGIN period  62
  TRANSIENT
END period  62

BEGIN period  63
  TRANSIENT
END period  63

BEGIN period  64
  TRANSIENT
END period  64

BEGIN period  65
  TRANSIENT
END period  65

BEGIN period  66
  TRANSIENT
END period  66

BEGIN period  67
  TRANSIENT
END period  67

BEGIN period  68
  TRANSIENT
END period  68

BEGIN period  69
  TRANSIENT
END period  69

BEGIN period  70
  TRANSIENT
END period  70

BEGIN period  71
  TRANSIENT
END period  71

BEGIN period  72
  TRANSIENT
END period  72

BEGIN period  73
  TRANSIENT
END period  73

BEGIN period  74
  TRANSIENT
END period  74

BEGIN period  75
  TRANSIENT
END period  75

BEGIN period  76
  TRANSIENT
END period  76

BEGIN period  77
  TRANSIENT
END period  77

BEGIN period  78
  TRANSIENT
END period  78

BEGIN period  79
  TRANSIENT
END period  79

BEGIN period  80
  TRANSIENT
END period  80

BEGIN period  81
  TRANSIENT
END period  81

BEGIN period  82
  TRANSIENT
END period  82

BEGIN period  83
  TRANSIENT
END period  83

BEGIN period  84
  TRANSIENT
END period  84

BEGIN period  85
  TRANSIENT
END period  85

BEGIN period  86
  TRANSIENT
END period  86

BEGIN period  87
  TRANSIENT
END period  87

BEGIN period  88
  TRANSIENT
END period  88

BEGIN period  89
  TRANSIENT
END period  89

BEGIN period  90
  TRANSIENT
END period  90

BEGIN period  91
  TRANSIENT
END period  91

BEGIN period  92
  TRANSIENT
END period  92

BEGIN period  93
  TRANSIENT
END period  93

BEGIN period  94
  TRANSIENT
END period  94

BEGIN period  95
  TRANSIENT
END period  95

BEGIN period  96
  TRANSIENT
END period  96

BEGIN period  97
  TRANSIENT
END period  97

BEGIN period  98
  TRANSIENT
END period  98

BEGIN period  99
  TRANSIENT
END period  99

BEGIN period  100
  TRANSIENT
END period  100

BEGIN period  101
  TRANSIENT
END period  101

BEGIN period  102
  TRANSIENT
END period  102

BEGIN period  103
  TRANSIENT
END period  103

BEGIN period  104
  TRANSIENT
END period  104

BEGIN period  105
  TRANSIENT
END period  105

BEGIN period  106
  TRANSIENT
END period  106

BEGIN period  107
  TRANSIENT
END period  107

BEGIN period  108
  TRANSIENT
END period  108

BEGIN period  109
  TRANSIENT
END period  109

BEGIN period  110
  TRANSIENT
END period  110

BEGIN period  111
  TRANSIENT
END period  111

BEGIN period  112
  TRANSIENT
END period  112

BEGIN period  113
  TRANSIENT
END period  113

BEGIN period  114
  TRANSIENT
END period  114

BEGIN period  115
  TRANSIENT
END period  115

BEGIN period  116
  TRANSIENT
END period  116

BEGIN period  117
  TRANSIENT
END period  117

BEGIN period  118
  TRANSIENT
END period  118

BEGIN period  119
  TRANSIENT
END period  119

BEGIN period  120
  TRANSIENT
END period  120

BEGIN period  121
  TRANSIENT
END period  121

BEGIN period  122
  TRANSIENT
END period  122

BEGIN period  123
  TRANSIENT
END period  123

BEGIN period  124
  TRANSIENT
END period  124

BEGIN period  125
  TRANSIENT
END period  125

BEGIN period  126
  TRANSIENT
END period  126

BEGIN period  127
  TRANSIENT
END period  127

BEGIN period  128
  TRANSIENT
END period  128

BEGIN period  129
  TRANSIENT
END period  129

BEGIN period  130
  TRANSIENT
END period  130

BEGIN period  131
  TRANSIENT
END period  131

BEGIN period  132
  TRANSIENT
END period  132

BEGIN period  133
  TRANSIENT
END period  133

BEGIN period  134
  TRANSIENT
END period  134

BEGIN period  135
  TRANSIENT
END period  135

BEGIN period  136
  TRANSIENT
END period  136

BEGIN period  137
  TRANSIENT
END period  137

BEGIN period  138
  TRANSIENT
END period  138

BEGIN period  139
  TRANSIENT
END period  139

BEGIN period  140
  TRANSIENT
END period  140

BEGIN period  141
  TRANSIENT
END period  141

BEGIN period  142
  TRANSIENT
END period  142

BEGIN period  143
  TRANSIENT
END period  143

BEGIN period  144
  TRANSIENT
END period  144

BEGIN period  145
  TRANSIENT
END period  145

BEGIN period  146
  TRANSIENT
END period  146

BEGIN period  147
  TRANSIENT
END period  147

BEGIN period  148
  TRANSIENT
END period  148

BEGIN period  149
  TRANSIENT
END period  149

BEGIN period  150
  TRANSIENT
END period  150

BEGIN period  151
  TRANSIENT
END period  151

BEGIN period  152
  TRANSIENT
END period  152

BEGIN period  153
  TRANSIENT
END period  153

BEGIN period  154
  TRANSIENT
END period  154

BEGIN period  155
  TRANSIENT
END period  155

BEGIN period  156
  TRANSIENT
END period  156

BEGIN period  157
  TRANSIENT
END period  157

BEGIN period  158
  TRANSIENT
END period  158

BEGIN period  159
  TRANSIENT
END period  159

BEGIN period  160
  TRANSIENT
END period  160

BEGIN period  161
  TRANSIENT
END period  161

BEGIN period  162
  TRANSIENT
END period  162

BEGIN period  163
  TRANSIENT
END period  163

BEGIN period  164
  TRANSIENT
END period  164

BEGIN period  165
  TRANSIENT
END period  165

BEGIN period  166
  TRANSIENT
END period  166

BEGIN period  167
  TRANSIENT
END period  167

BEGIN period  168
  TRANSIENT
END period  168

BEGIN period  169
  TRANSIENT
END period  169

BEGIN period  170
  TRANSIENT
END period  170

BEGIN period  171
  TRANSIENT
END period  171

BEGIN period  172
  TRANSIENT
END period  172

BEGIN period  173
  TRANSIENT
END period  173

BEGIN period  174
  TRANSIENT
END period  174

BEGIN period  175
  TRANSIENT
END period  175

BEGIN period  176
  TRANSIENT
END period  176

BEGIN period  177
  TRANSIENT
END period  177

BEGIN period  178
  TRANSIENT
END period  178

BEGIN period  179
  TRANSIENT
END period  179

BEGIN period  180
  TRANSIENT
END period  180

BEGIN period  181
  TRANSIENT
END period  181

BEGIN period  182
  TRANSIENT
END period  182

BEGIN period  183
  TRANSIENT
END period  183

BEGIN period  184
  TRANSIENT
END period  184

BEGIN period  185
  TRANSIENT
END period  185

BEGIN period  186
  TRANSIENT
END period  186

BEGIN period  187
  TRANSIENT
END period  187

BEGIN period  188
  TRANSIENT
END period  188

BEGIN period  189
  TRANSIENT
END period  189

BEGIN period  190
  TRANSIENT
END period  190

BEGIN period  191
  TRANSIENT
END period  191

BEGIN period  192
  TRANSIENT
END period  192

BEGIN period  193
  TRANSIENT
END period  193

BEGIN period  194
  TRANSIENT
END period  194

BEGIN period  195
  TRANSIENT
END period  195

BEGIN period  196
  TRANSIENT
END period  196

BEGIN period  197
  TRANSIENT
END period  197

BEGIN period  198
  TRANSIENT
END period  198

BEGIN period  199
  TRANSIENT
END period  199

BEGIN period  200
  TRANSIENT
END period  200

BEGIN period  201
  TRANSIENT
END period  201

BEGIN period  202
  TRANSIENT
END period  202

BEGIN period  203
  TRANSIENT
END period  203

BEGIN period  204
  TRANSIENT
END period  204

BEGIN period  205
  TRANSIENT
END period  205

BEGIN period  206
  TRANSIENT
END period  206

BEGIN period  207
  TRANSIENT
END period  207

BEGIN period  208
  TRANSIENT
END period  208

BEGIN period  209
  TRANSIENT
END period  209

BEGIN period  210
  TRANSIENT
END period  210

BEGIN period  211
  TRANSIENT
END period  211

BEGIN period  212
  TRANSIENT
END period  212

BEGIN period  213
  TRANSIENT
END period  213

BEGIN period  214
  TRANSIENT
END period  214

BEGIN period  215
  TRANSIENT
END period  215

BEGIN period  216
  TRANSIENT
END period  216

BEGIN period  217
  TRANSIENT
END period  217

BEGIN period  218
  TRANSIENT
END period  218

BEGIN period  219
  TRANSIENT
END period  219

BEGIN period  220
  TRANSIENT
END period  220

BEGIN period  221
  TRANSIENT
END period  221

BEGIN period  222
  TRANSIENT
END period  222

BEGIN period  223
  TRANSIENT
END period  223

BEGIN period  224
  TRANSIENT
END period  224

BEGIN period  225
  TRANSIENT
END period  225

BEGIN period  226
  TRANSIENT
END period  226

BEGIN period  227
  TRANSIENT
END period  227

BEGIN period  228
  TRANSIENT
END period  228

BEGIN period  229
  TRANSIENT
END period  229

BEGIN period  230
  TRANSIENT
END period  230

BEGIN period  231
  TRANSIENT
END period  231

BEGIN period  232
  TRANSIENT
END period  232

BEGIN period  233
  TRANSIENT
END period  233

BEGIN period  234
  TRANSIENT
END period  234

BEGIN period  235
  TRANSIENT
END period  235

BEGIN period  236
  TRANSIENT
END period  236

BEGIN period  237
  TRANSIENT
END period  237

BEGIN period  238
  TRANSIENT
END period  238

BEGIN period  239
  TRANSIENT
END period  239

BEGIN period  240
  TRANSIENT
END period  240

BEGIN period  241
  TRANSIENT
END period  241

BEGIN period  242
  TRANSIENT
END period  242

BEGIN period  243
  TRANSIENT
END period  243

BEGIN period  244
  TRANSIENT
END period  244

BEGIN period  245
  TRANSIENT
END period  245

BEGIN period  246
  TRANSIENT
END period  246

BEGIN period  247
  TRANSIENT
END period  247

BEGIN period  248
  TRANSIENT
END period  248

BEGIN period  249
  TRANSIENT
END period  249

BEGIN period  250
  TRANSIENT
END period  250

BEGIN period  251
  TRANSIENT
END period  251

BEGIN period  252
  TRANSIENT
END period  252

BEGIN period  253
  TRANSIENT
END period  253

BEGIN period  254
  TRANSIENT
END period  254

BEGIN period  255
  TRANSIENT
END period  255

BEGIN period  256
  TRANSIENT
END period  256

BEGIN period  257
  TRANSIENT
END period  257

BEGIN period  258
  TRANSIENT
END period  258

BEGIN period  259
  TRANSIENT
END period  259

BEGIN period  260
  TRANSIENT
END period  260

BEGIN period  261
  TRANSIENT
END period  261

BEGIN period  262
  TRANSIENT
END period  262

BEGIN period  263
  TRANSIENT
END period  263

BEGIN period  264
  TRANSIENT
END period  264

BEGIN period  265
  TRANSIENT
END period  265

BEGIN period  266
  TRANSIENT
END period  266

BEGIN period  267
  TRANSIENT
END period  267

BEGIN period  268
  TRANSIENT
END period  268

BEGIN period  269
  TRANSIENT
END period  269

BEGIN period  270
  TRANSIENT
END period  270

BEGIN period  271
  TRANSIENT
END period  271

BEGIN period  272
  TRANSIENT
END period  272

BEGIN period  273
  TRANSIENT
END period  273

BEGIN period  274
  TRANSIENT
END period  274

BEGIN period  275
  TRANSIENT
END period  275

BEGIN period  276
  TRANSIENT
END period  276

BEGIN period  277
  TRANSIENT
END period  277

BEGIN period  278
  TRANSIENT
END period  278

BEGIN period  279
  TRANSIENT
END period  279

BEGIN period  280
  TRANSIENT
END period  280

BEGIN period  281
  TRANSIENT
END period  281

BEGIN period  282
  TRANSIENT
END period  282

BEGIN period  283
  TRANSIENT
END period  283

BEGIN period  284
  TRANSIENT
END period  284

BEGIN period  285
  TRANSIENT
END period  285

BEGIN period  286
  TRANSIENT
END period  286

BEGIN period  287
  TRANSIENT
END period  287

BEGIN period  288
  TRANSIENT
END period  288

BEGIN period  289
  TRANSIENT
END period  289

BEGIN period  290
  TRANSIENT
END period  290

BEGIN period  291
  TRANSIENT
END period  291

BEGIN period  292
  TRANSIENT
END period  292

BEGIN period  293
  TRANSIENT
END period  293

BEGIN period  294
  TRANSIENT
END period  294

BEGIN period  295
  TRANSIENT
END period  295

BEGIN period  296
  TRANSIENT
END period  296

BEGIN period  297
  TRANSIENT
END period  297

BEGIN period  298
  TRANSIENT
END period  298

BEGIN period  299
  TRANSIENT
END period  299

BEGIN period  300
  TRANSIENT
END period  300

BEGIN period  301
  TRANSIENT
END period  301

BEGIN period  302
  TRANSIENT
END period  302

BEGIN period  303
  TRANSIENT
END period  303

BEGIN period  304
  TRANSIENT
END period  304

BEGIN period  305
  TRANSIENT
END period  305

BEGIN period  306
  TRANSIENT
END period  306

BEGIN period  307
  TRANSIENT
END period  307

BEGIN period  308
  TRANSIENT
END period  308

BEGIN period  309
  TRANSIENT
END period  309

BEGIN period  310
  TRANSIENT
END period  310

BEGIN period  311
  TRANSIENT
END period  311

BEGIN period  312
  TRANSIENT
END period  312

BEGIN period  313
  TRANSIENT
END period  313

BEGIN period  314
  TRANSIENT
END period  314

BEGIN period  315
  TRANSIENT
END period  315

BEGIN period  316
  TRANSIENT
END period  316

BEGIN period  317
  TRANSIENT
END period  317

BEGIN period  318
  TRANSIENT
END period  318

BEGIN period  319
  TRANSIENT
END period  319

BEGIN period  320
  TRANSIENT
END period  320

BEGIN period  321
  TRANSIENT
END period  321

BEGIN period  322
  TRANSIENT
END period  322

BEGIN period  323
  TRANSIENT
END period  323

BEGIN period  324
  TRANSIENT
END period  324

BEGIN period  325
  TRANSIENT
END period  325

BEGIN period  326
  TRANSIENT
END period  326

BEGIN period  327
  TRANSIENT
END period  327

BEGIN period  328
  TRANSIENT
END period  328

BEGIN period  329
  TRANSIENT
END period  329

BEGIN period  330
  TRANSIENT
END period  330

BEGIN period  331
  TRANSIENT
END period  331

BEGIN period  332
  TRANSIENT
END period  332

BEGIN period  333
  TRANSIENT
END period  333

BEGIN period  334
  TRANSIENT
END period  334

BEGIN period  335
  TRANSIENT
END period  335

BEGIN period  336
  TRANSIENT
END period  336

BEGIN period  337
  TRANSIENT
END period  337

BEGIN period  338
  TRANSIENT
END period  338

BEGIN period  339
  TRANSIENT
END period  339

BEGIN period  340
  TRANSIENT
END period  340

BEGIN period  341
  TRANSIENT
END period  341

BEGIN period  342
  TRANSIENT
END period  342

BEGIN period  343
  TRANSIENT
END period  343

BEGIN period  344
  TRANSIENT
END period  344

BEGIN period  345
  TRANSIENT
END period  345

BEGIN period  346
  TRANSIENT
END period  346

BEGIN period  347
  TRANSIENT
END period  347

BEGIN period  348
  TRANSIENT
END period  348

BEGIN period  349
  TRANSIENT
END period  349

BEGIN period  350
  TRANSIENT
END period  350

BEGIN period  351
  TRANSIENT
END period  351

BEGIN period  352
  TRANSIENT
END period  352

BEGIN period  353
  TRANSIENT
END period  353

BEGIN period  354
  TRANSIENT
END period  354

BEGIN period  355
  TRANSIENT
END period  355

BEGIN period  356
  TRANSIENT
END period  356

BEGIN period  357
  TRANSIENT
END period  357

BEGIN period  358
  TRANSIENT
END period  358

BEGIN period  359
  TRANSIENT
END period  359

BEGIN period  360
  TRANSIENT
END period  360

BEGIN period  361
  TRANSIENT
END period  361

BEGIN period  362
  TRANSIENT
END period  362

BEGIN period  363
  TRANSIENT
END period  363

BEGIN period  364
  TRANSIENT
END period  364

BEGIN period  365
  TRANSIENT
END period  365

BEGIN period  366
  TRANSIENT
END period  366

BEGIN period  367
  TRANSIENT
END period  367

BEGIN period  368
  TRANSIENT
END period  368

BEGIN period  369
  TRANSIENT
END period  369

BEGIN period  370
  TRANSIENT
END period  370

BEGIN period  371
  TRANSIENT
END period  371

BEGIN period  372
  TRANSIENT
END period  372

BEGIN period  373
  TRANSIENT
END period  373

BEGIN period  374
  TRANSIENT
END period  374

BEGIN period  375
  TRANSIENT
END period  375

BEGIN period  376
  TRANSIENT
END period  376

BEGIN period  377
  TRANSIENT
END period  377

BEGIN period  378
  TRANSIENT
END period  378

BEGIN period  379
  TRANSIENT
END period  379

BEGIN period  380
  TRANSIENT
END period  380

BEGIN period  381
  TRANSIENT
END period  381

BEGIN period  382
  TRANSIENT
END period  382

BEGIN period  383
  TRANSIENT
END period  383

BEGIN period  384
  TRANSIENT
END period  384

BEGIN period  385
  TRANSIENT
END period  385

BEGIN period  386
  TRANSIENT
END period  386

BEGIN period  387
  TRANSIENT
END period  387

BEGIN period  388
  TRANSIENT
END period  388

BEGIN period  389
  TRANSIENT
END period  389

BEGIN period  390
  TRANSIENT
END period  390

BEGIN period  391
  TRANSIENT
END period  391

BEGIN period  392
  TRANSIENT
END period  392

BEGIN period  393
  TRANSIENT
END period  393

BEGIN period  394
  TRANSIENT
END period  394

BEGIN period  395
  TRANSIENT
END period  395

BEGIN period  396
  TRANSIENT
END period  396

BEGIN period  397
  TRANSIENT
END period  397

BEGIN period  398
  TRANSIENT
END period  398

BEGIN period  399
  TRANSIENT
END period  399

BEGIN period  400
  TRANSIENT
END period  400

BEGIN period  401
  TRANSIENT
END period  401

BEGIN period  402
  TRANSIENT
END period  402

BEGIN period  403
  TRANSIENT
END period  403

BEGIN period  404
  TRANSIENT
END period  404

BEGIN period  405
  TRANSIENT
END period  405

BEGIN period  406
  TRANSIENT
END period  406

BEGIN period  407
  TRANSIENT
END period  407

BEGIN period  408
  TRANSIENT
END period  408

BEGIN period  409
  TRANSIENT
END period  409

BEGIN period  410
  TRANSIENT
END period  410

BEGIN period  411
  TRANSIENT
END period  411

BEGIN period  412
  TRANSIENT
END period  412

BEGIN period  413
  TRANSIENT
END period  413

BEGIN period  414
  TRANSIENT
END period  414

BEGIN period  415
  TRANSIENT
END period  415

BEGIN period  416
  TRANSIENT
END period  416

BEGIN period  417
  TRANSIENT
END period  417

BEGIN period  418
  TRANSIENT
END period  418

BEGIN period  419
  TRANSIENT
END period  419

BEGIN period  420
  TRANSIENT
END period  420

BEGIN period  421
  TRANSIENT
END period  421

BEGIN period  422
  TRANSIENT
END period  422

BEGIN period  423
  TRANSIENT
END period  423

BEGIN period  424
  TRANSIENT
END period  424

BEGIN period  425
  TRANSIENT
END period  425

BEGIN period  426
  TRANSIENT
END period  426

BEGIN period  427
  TRANSIENT
END period  427

BEGIN period  428
  TRANSIENT
END period  428

BEGIN period  429
  TRANSIENT
END period  429

BEGIN period  430
  TRANSIENT
END period  430

BEGIN period  431
  TRANSIENT
END period  431

BEGIN period  432
  TRANSIENT
END period  432

BEGIN period  433
  TRANSIENT
END period  433

BEGIN period  434
  TRANSIENT
END period  434

BEGIN period  435
  TRANSIENT
END period  435

BEGIN period  436
  TRANSIENT
END period  436

BEGIN period  437
  TRANSIENT
END period  437

BEGIN period  438
  TRANSIENT
END period  438

BEGIN period  439
  TRANSIENT
END period  439

BEGIN period  440
  TRANSIENT
END period  440

BEGIN period  441
  TRANSIENT
END period  441

BEGIN period  442
  TRANSIENT
END period  442

BEGIN period  443
  TRANSIENT
END period  443

BEGIN period  444
  TRANSIENT
END period  444

BEGIN period  445
  TRANSIENT
END period  445

BEGIN period  446
  TRANSIENT
END period  446

BEGIN period  447
  TRANSIENT
END period  447

BEGIN period  448
  TRANSIENT
END period  448

BEGIN period  449
  TRANSIENT
END period  449

BEGIN period  450
  TRANSIENT
END period  450

BEGIN period  451
  TRANSIENT
END period  451

BEGIN period  452
  TRANSIENT
END period  452

BEGIN period  453
  TRANSIENT
END period  453

BEGIN period  454
  TRANSIENT
END period  454

BEGIN period  455
  TRANSIENT
END period  455

BEGIN period  456
  TRANSIENT
END period  456

BEGIN period  457
  TRANSIENT
END period  457

BEGIN period  458
  TRANSIENT
END period  458

BEGIN period  459
  TRANSIENT
END period  459

BEGIN period  460
  TRANSIENT
END period  460

BEGIN period  461
  TRANSIENT
END period  461

BEGIN period  462
  TRANSIENT
END period  462

BEGIN period  463
  TRANSIENT
END period  463

BEGIN period  464
  TRANSIENT
END period  464

BEGIN period  465
  TRANSIENT
END period  465

BEGIN period  466
  TRANSIENT
END period  466

BEGIN period  467
  TRANSIENT
END period  467

BEGIN period  468
  TRANSIENT
END period  468

BEGIN period  469
  TRANSIENT
END period  469

BEGIN period  470
  TRANSIENT
END period  470

BEGIN period  471
  TRANSIENT
END period  471

BEGIN period  472
  TRANSIENT
END period  472

BEGIN period  473
  TRANSIENT
END period  473

BEGIN period  474
  TRANSIENT
END period  474

BEGIN period  475
  TRANSIENT
END period  475

BEGIN period  476
  TRANSIENT
END period  476

BEGIN period  477
  TRANSIENT
END period  477

BEGIN period  478
  TRANSIENT
END period  478

BEGIN period  479
  TRANSIENT
END period  479

BEGIN period  480
  TRANSIENT
END period  480

BEGIN period  481
  TRANSIENT
END period  481

BEGIN period  482
  TRANSIENT
END period  482

BEGIN period  483
  TRANSIENT
END period  483

BEGIN period  484
  TRANSIENT
END period  484

BEGIN period  485
  TRANSIENT
END period  485

BEGIN period  486
  TRANSIENT
END period  486

BEGIN period  487
  TRANSIENT
END period  487

BEGIN period  488
  TRANSIENT
END period  488

BEGIN period  489
  TRANSIENT
END period  489

BEGIN period  490
  TRANSIENT
END period  490

BEGIN period  491
  TRANSIENT
END period  491

BEGIN period  492
  TRANSIENT
END period  492

BEGIN period  493
  TRANSIENT
END period  493

BEGIN period  494
  TRANSIENT
END period  494

BEGIN period  495
  TRANSIENT
END period  495

BEGIN period  496
  TRANSIENT
END period  496

BEGIN period  497
  TRANSIENT
END period  497

BEGIN period  498
  TRANSIENT
END period  498

BEGIN period  499
  TRANSIENT
END period  499

BEGIN period  500
  TRANSIENT
END period  500

BEGIN period  501
  TRANSIENT
END period  501

BEGIN period  502
  TRANSIENT
END period  502

BEGIN period  503
  TRANSIENT
END period  503

BEGIN period  504
  TRANSIENT
END period  504

BEGIN period  505
  TRANSIENT
END period  505

BEGIN period  506
  TRANSIENT
END period  506

BEGIN period  507
  TRANSIENT
END period  507

BEGIN period  508
  TRANSIENT
END period  508

BEGIN period  509
  TRANSIENT
END period  509

BEGIN period  510
  TRANSIENT
END period  510

BEGIN period  511
  TRANSIENT
END period  511

BEGIN period  512
  TRANSIENT
END period  512

BEGIN period  513
  TRANSIENT
END period  513

BEGIN period  514
  TRANSIENT
END period  514

BEGIN period  515
  TRANSIENT
END period  515

BEGIN period  516
  TRANSIENT
END period  516

BEGIN period  517
  TRANSIENT
END period  517

BEGIN period  518
  TRANSIENT
END period  518

BEGIN period  519
  TRANSIENT
END period  519

BEGIN period  520
  TRANSIENT
END period  520

BEGIN period  521
  TRANSIENT
END period  521

BEGIN period  522
  TRANSIENT
END period  522

BEGIN period  523
  TRANSIENT
END period  523

BEGIN period  524
  TRANSIENT
END period  524

BEGIN period  525
  TRANSIENT
END period  525

BEGIN period  526
  TRANSIENT
END period  526

BEGIN period  527
  TRANSIENT
END period  527

BEGIN period  528
  TRANSIENT
END period  528

BEGIN period  529
  TRANSIENT
END period  529

BEGIN period  530
  TRANSIENT
END period  530

BEGIN period  531
  TRANSIENT
END period  531

BEGIN period  532
  TRANSIENT
END period  532

BEGIN period  533
  TRANSIENT
END period  533

BEGIN period  534
  TRANSIENT
END period  534

BEGIN period  535
  TRANSIENT
END period  535

BEGIN period  536
  TRANSIENT
END period  536

BEGIN period  537
  TRANSIENT
END period  537

BEGIN period  538
  TRANSIENT
END period  538

BEGIN period  539
  TRANSIENT
END period  539

BEGIN period  540
  TRANSIENT
END period  540

BEGIN period  541
  TRANSIENT
END period  541

BEGIN period  542
  TRANSIENT
END period  542

BEGIN period  543
  TRANSIENT
END period  543

BEGIN period  544
  TRANSIENT
END period  544

BEGIN period  545
  TRANSIENT
END period  545

BEGIN period  546
  TRANSIENT
END period  546

BEGIN period  547
  TRANSIENT
END period  547

BEGIN period  548
  TRANSIENT
END period  548

BEGIN period  549
  TRANSIENT
END period  549

BEGIN period  550
  TRANSIENT
END period  550

BEGIN period  551
  TRANSIENT
END period  551

BEGIN period  552
  TRANSIENT
END period  552

BEGIN period  553
  TRANSIENT
END period  553

BEGIN period  554
  TRANSIENT
END period  554

BEGIN period  555
  TRANSIENT
END period  555

BEGIN period  556
  TRANSIENT
END period  556

BEGIN period  557
  TRANSIENT
END period  557

BEGIN period  558
  TRANSIENT
END period  558

BEGIN period  559
  TRANSIENT
END period  559

BEGIN period  560
  TRANSIENT
END period  560

BEGIN period  561
  TRANSIENT
END period  561

BEGIN period  562
  TRANSIENT
END period  562

BEGIN period  563
  TRANSIENT
END period  563

BEGIN period  564
  TRANSIENT
END period  564

BEGIN period  565
  TRANSIENT
END period  565

BEGIN period  566
  TRANSIENT
END period  566

BEGIN period  567
  TRANSIENT
END period  567

BEGIN period  568
  TRANSIENT
END period  568

BEGIN period  569
  TRANSIENT
END period  569

BEGIN period  570
  TRANSIENT
END period  570

BEGIN period  571
  TRANSIENT
END period  571

BEGIN period  572
  TRANSIENT
END period  572

BEGIN period  573
  TRANSIENT
END period  573

BEGIN period  574
  TRANSIENT
END period  574

BEGIN period  575
  TRANSIENT
END period  575

BEGIN period  576
  TRANSIENT
END period  576

BEGIN period  577
  TRANSIENT
END period  577

BEGIN period  578
  TRANSIENT
END period  578

BEGIN period  579
  TRANSIENT
END period  579

BEGIN period  580
  TRANSIENT
END period  580

BEGIN period  581
  TRANSIENT
END period  581

BEGIN period  582
  TRANSIENT
END period  582

BEGIN period  583
  TRANSIENT
END period  583

BEGIN period  584
  TRANSIENT
END period  584

BEGIN period  585
  TRANSIENT
END period  585

BEGIN period  586
  TRANSIENT
END period  586

BEGIN period  587
  TRANSIENT
END period  587

BEGIN period  588
  TRANSIENT
END period  588

BEGIN period  589
  TRANSIENT
END period  589

BEGIN period  590
  TRANSIENT
END period  590

BEGIN period  591
  TRANSIENT
END period  591

BEGIN period  592
  TRANSIENT
END period  592

BEGIN period  593
  TRANSIENT
END period  593

BEGIN period  594
  TRANSIENT
END period  594

BEGIN period  595
  TRANSIENT
END period  595

BEGIN period  596
  TRANSIENT
END period  596

BEGIN period  597
  TRANSIENT
END period  597

BEGIN period  598
  TRANSIENT
END period  598

BEGIN period  599
  TRANSIENT
END period  599

BEGIN period  600
  TRANSIENT
END period  600

BEGIN period  601
  TRANSIENT
END period  601

BEGIN period  602
  TRANSIENT
END period  602

BEGIN period  603
  TRANSIENT
END period  603

BEGIN period  604
  TRANSIENT
END period  604

BEGIN period  605
  TRANSIENT
END period  605

BEGIN period  606
  TRANSIENT
END period  606

BEGIN period  607
  TRANSIENT
END period  607

BEGIN period  608
  TRANSIENT
END period  608

BEGIN period  609
  TRANSIENT
END period  609

BEGIN period  610
  TRANSIENT
END period  610

BEGIN period  611
  TRANSIENT
END period  611

BEGIN period  612
  TRANSIENT
END period  612

BEGIN period  613
  TRANSIENT
END period  613

BEGIN period  614
  TRANSIENT
END period  614

BEGIN period  615
  TRANSIENT
END period  615

BEGIN period  616
  TRANSIENT
END period  616

BEGIN period  617
  TRANSIENT
END period  617

BEGIN period  618
  TRANSIENT
END period  618

BEGIN period  619
  TRANSIENT
END period  619

BEGIN period  620
  TRANSIENT
END period  620

BEGIN period  621
  TRANSIENT
END period  621

BEGIN period  622
  TRANSIENT
END period  622

BEGIN period  623
  TRANSIENT
END period  623

BEGIN period  624
  TRANSIENT
END period  624

BEGIN period  625
  TRANSIENT
END period  625

BEGIN period  626
  TRANSIENT
END period  626

BEGIN period  627
  TRANSIENT
END period  627

BEGIN period  628
  TRANSIENT
END period  628

BEGIN period  629
  TRANSIENT
END period  629

BEGIN period  630
  TRANSIENT
END period  630

BEGIN period  631
  TRANSIENT
END period  631

BEGIN period  632
  TRANSIENT
END period  632

BEGIN period  633
  TRANSIENT
END period  633

BEGIN period  634
  TRANSIENT
END period  634

BEGIN period  635
  TRANSIENT
END period  635

BEGIN period  636
  TRANSIENT
END period  636

BEGIN period  637
  TRANSIENT
END period  637

BEGIN period  638
  TRANSIENT