# File generated by Flopy version 3.5.0 on 03/06/2024 at 10:48:00.
BEGIN griddata
  strt
    INTERNAL  FACTOR  1.0
        15.00000000      15.00000000      15.00000000      15.00000000      15.00000000      15.00000000      15.00000000      15.00000000      15.00000000      15.00000000      15.00000000      15.00000000      15.00000000      15.00000000      15.00000000      15.00000000      15.00000000      15.00000000      15.00000000      15.00000000
        15.00000000      15.00000000      15.00000000      15.00000000      15.00000000      15.00000000      15.00000000      15.00000000      15.00000000      15.00000000      15.00000000      15.00000000      15.00000000      15.00000000      15.00000000      15.00000000      15.00000000      15.00000000      15.00000000      15.00000000
        15.00000000      15.00000000      15.00000000      15.00000000      15.00000000      15.00000000      15.00000000      15.00000000      15.00000000      15.00000000      15.00000000      15.00000000      15.00000000      15.00000000      15.00000000      15.00000000      15.00000000      15.00000000      15.00000000      15.00000000
        15.00000000      15.00000000      15.00000000      15.00000000      15.00000000      15.00000000      15.00000000      15.00000000      15.00000000      15.00000000      15.00000000      15.00000000      15.00000000      15.00000000      15.00000000      15.00000000      15.00000000      15.00000000      15.00000000      15.00000000
        15.00000000      15.00000000      15.00000000      15.00000000      15.00000000      15.00000000      15.00000000      15.00000000      15.00000000      15.00000000      15.00000000      15.00000000      15.00000000      15.00000000      15.00000000      15.00000000      15.00000000      15.00000000      15.00000000      15.00000000
        15.37667115      15.37389042      15.36681235      15.35854068      15.35011790      15.34069429      15.32776311      15.30931921      15.28571319      15.26086566      15.23842965      15.21806277      15.19817676      15.17889126      15.16036621      15.14374377      15.13062845      15.12063755      15.11203760      15.10357048
        15.09486790      15.08660561      15.08003101      15.07580647      15.07334747      15.07136864      15.06893055      15.06609470      15.06366481      15.06228152      15.06185193      15.06167909      15.06094516      15.05924123      15.05696858      15.05501069      15.05403303      15.05395780      15.05413912      15.05404921
        15.05366079      15.05337096      15.05359766      15.05453223      15.05598085      15.05749599      15.05872347      15.05948811      15.06000780      15.06068915      15.06162654      15.06284148      15.06369463      15.06301944      15.06017380      15.05590493      15.05148728      15.04805781      15.04576179      15.04409561
        15.04243346      15.04072797      15.03978256      15.03978623      15.04035075      15.04105633      15.04186196      15.04296854      15.04454511      15.04638007      15.04802985      15.04911909      15.04960413      15.04968392      15.04968863      15.05015555      15.05125244      15.05260240      15.05377024      15.05471299
        15.05574979      15.05709508      15.05850269      15.05950545      15.05981245      15.05945487      15.05882199      15.05865348      15.05942122      15.06119489      15.06344264      15.06499172      15.06518124      15.06473412      15.06502727      15.06695467      15.06955692      15.07223932      15.07445301      15.07576288
        15.72701085      15.72348923      15.71405966      15.70083161      15.68567767      15.66786395      15.64436771      15.61228532      15.57092592      15.52460979      15.47953280      15.43757534      15.39750297      15.35942710      15.32354258      15.29081498      15.26379397      15.24269317      15.22498263      15.20830316
        15.19176875      15.17621109      15.16335074      15.15406465      15.14773970      15.14275533      15.13766530      15.13207703      15.12684266      15.12308203      15.12096563      15.11960420      15.11773124      15.11456173      15.11050182      15.10681993      15.10457072      15.10383425      15.10389684      15.10402032
        15.10392542      15.10379782      15.10409679      15.10531935      15.10735298      15.10950394      15.11112897      15.11198168      15.11240556      15.11280667      15.11315331      15.11351098      15.11369117      15.11235902      15.10755234      15.09922950      15.09019881      15.08348068      15.07934500      15.07680079
        15.07513470      15.07376018      15.07303336      15.07293936      15.07352010      15.07476039      15.07648790      15.07848151      15.08078120      15.08335926      15.08589628      15.08776943      15.08860949      15.08872097      15.08870842      15.08912886      15.09003203      15.09109402      15.09232461      15.09407066
        15.09622115      15.09853072      15.10098964      15.10342816      15.10526149      15.10598441      15.10593024      15.10626283      15.10755177      15.10966146      15.11189549      15.11350423      15.11438716      15.11471945      15.11502239      15.11689483      15.12066505      15.12547115      15.12926313      15.13070660
        16.05594972      16.05384793      16.04503345      16.02952912      16.00909064      15.98395372      15.95198196      15.90994416      15.85542899      15.79126508      15.72490495      15.66113162      15.60028347      15.54279524      15.48924308      15.44040761      15.39913651      15.36620842      15.33894444      15.31441210
        15.29120969      15.26954299      15.25082912      15.23616390      15.22537866      15.21680184      15.20853973      15.19975374      15.19124274      15.18444181      15.17979573      15.17648297      15.17311087      15.16861010      15.16304311      15.15763330      15.15378125      15.15199149      15.15168535      15.15186609
        15.15190578      15.15186948      15.15223948      15.15352240      15.15564712      15.15801669      15.16001816      15.16124322      15.16169555      15.16154728      15.16101744      15.16040937      15.15955115      15.15713054      15.15123859      15.14154358      15.13053499      15.12085327      15.11363891      15.10924114
        15.10742795      15.10599173      15.10456713      15.10378220      15.10430895      15.10607754      15.10852650      15.11125430      15.11431182      15.11755401      15.12047772      15.12240804      15.12315800      15.12323440      15.12311108      15.12315282      15.12363556      15.12456187      15.12591997      15.12781719
        15.13014141      15.13288492      15.13608792      15.13939579      15.14217457      15.14417432      15.14573845      15.14751648      15.14963719      15.15214276      15.15481545      15.15711754      15.15868202      15.15946876      15.16015165      15.16227088      15.16611392      15.17068632      15.17462091      15.17676133
        16.36961739      16.36915165      16.36193725      16.34574252      16.32168946      16.29086852      16.25238365      16.20311518      16.13913996      16.06102121      15.97580386      15.89053149      15.80796231      15.72995623      15.65803723      15.59265469      15.53650437      15.49108995      15.45406647      15.42201460
        15.39273501      15.36559864      15.34170082      15.32216196      15.30688955      15.29432941      15.28262285      15.27060378      15.25862103      15.24817598      15.24023351      15.23437189      15.22918239      15.22323874      15.21611104      15.20885233      15.20314369      15.19988343      15.19869750      15.19852770
        15.19854898      15.19859100      15.19887648      15.19988438      15.20184236      15.20435407      15.20667627      15.20815805      15.20871401      15.20857649      15.20795772      15.20678723      15.20473535      15.20138190      15.19570287      15.18581982      15.17239050      15.15909915      15.14896237      15.14244973
        15.13935040      15.13749851      15.13644091      15.13611356      15.13667420      15.13837656      15.14110038      15.14442210      15.14792305      15.15117721      15.15389611      15.15571139      15.15635266      15.15607645      15.15543282      15.15502554      15.15522369      15.15585539      15.15664678      15.15790194
        15.16007899      15.16317815      15.16683456      15.17076933      15.17475815      15.17854629      15.18184391      15.18481501      15.18777931      15.19103410      15.19431268      15.19689896      15.19863049      15.20006934      15.20181659      15.20429401      15.20761726      15.21148298      15.21521524      15.21731193
        16.67383981      16.67426209      16.66811504      16.65179527      16.62552282      16.59026515      16.54623978      16.49134347      16.42086032      16.33260522      16.23162781      16.12625689      16.02206983      15.92289065      15.83144026      15.74812691      15.67575854      15.61684684      15.56938270      15.52951342
        15.49448651      15.46296673      15.43524236      15.41185949      15.39259796      15.37624843      15.36113483      15.34576341      15.32998190      15.31536856      15.30351316      15.29449326      15.28699610      15.27936107      15.27067890      15.26157759      15.25372710      15.24844467      15.24582162      15.24491925
        15.24463202      15.24441577      15.24437988      15.24509610      15.24687754      15.24934967      15.25175096      15.25344432      15.25428458      15.25430382      15.25361981      15.25221824      15.24988811      15.24616852      15.24001007      15.22966620      15.21551959      15.20042948      15.18694641      15.17662634
        15.17150017      15.16990638      15.16988025      15.17019822      15.17086736      15.17264034      15.17548151      15.17874067      15.18196465      15.18497445      15.18755600      15.18916084      15.18927881      15.18824456      15.18692431      15.18589126      15.18533666      15.18524510      15.18554717      15.18651930
        15.18846765      15.19144820      15.19540763      15.20014496      15.20513476      15.20976401      15.21383811      15.21786502      15.22208766      15.22634451      15.23038935      15.23390867      15.23682316      15.23902675      15.24055408      15.24211651      15.24460097      15.24775974      15.25066052      15.25204801
        16.97338899      16.97339022      16.96718014      16.95022875      16.92167447      16.88233506      16.83343226      16.77404438      16.69905795      16.60368721      16.49035230      16.36758836      16.24299609      16.12234754      16.01020062      15.90768339      15.81744090      15.74315794      15.68384100      15.63575157
        15.59565078      15.56103777      15.53070057      15.50457042      15.48226928      15.46255779      15.44393782      15.42507731      15.40557718      15.38675923      15.37056073      15.35772330      15.34735251      15.33771153      15.32733083      15.31619019      15.30583959      15.29809427      15.29358920      15.29153828
        15.29064880      15.29011138      15.28981246      15.29008935      15.29126175      15.29327199      15.29555312      15.29737133      15.29833746      15.29846259      15.29818088      15.29754508      15.29587686      15.29205319      15.28503598      15.27363368      15.25786686      15.24037395      15.22400749      15.21120044
        15.20502010      15.20384662      15.20479894      15.20636909      15.20781932      15.20949522      15.21159883      15.21409266      15.21683984      15.21950684      15.22159185      15.22259902      15.22214005      15.22038510      15.21803009      15.21584060      15.21440671      15.21394921      15.21415384      15.21484907
        15.21631540      15.21900853      15.22301144      15.22786819      15.23306057      15.23826715      15.24335870      15.24837957      15.25333738      15.25827415      15.26320301      15.26763733      15.27094716      15.27288710      15.27416680      15.27574753      15.27806995      15.28077929      15.28362338      15.28578243
        17.27248391      17.27074944      17.26263174      17.24344592      17.21166689      17.16796375      17.11403912      17.05004811      16.97158625      16.87182600      16.74954482      16.61203753      16.46859307      16.32730633      16.19453669      16.07215603      15.96237663      15.87051804      15.79770604      15.74069774
        15.69567754      15.65893848      15.62752109      15.60004602      15.57547126      15.55261590      15.53057147      15.50840748      15.48538982      15.46231722      15.44140552      15.42421099      15.41040141      15.39826706      15.38592816      15.37277570      15.36000616      15.34961306      15.34276540      15.33909585
        15.33732297      15.33623362      15.33524336      15.33458854      15.33490066      15.33641347      15.33856426      15.34048876      15.34171131      15.34222171      15.34236884      15.34206343      15.34061694      15.33694385      15.32987254      15.31773874      15.29961855      15.27932073      15.26151331      15.24784563
        15.24064992      15.23898239      15.24047240      15.24320323      15.24521032      15.24668416      15.24841920      15.25066723      15.25300958      15.25501345      15.25641420      15.25690675      15.25589830      15.25312297      15.24929660      15.24575416      15.24340989      15.24239544      15.24228748      15.24285467
        15.24422053      15.24658359      15.25000675      15.25439378      15.25959985      15.26520816      15.27065746      15.27579700      15.28104778      15.28659257      15.29213497      15.29709678      15.30107854      15.30388029      15.30564264      15.30683980      15.30836883      15.31054150      15.31317813      15.31511786
        17.57324056      17.56805953      17.55583768      17.53261794      17.49638818      17.44751276      17.38809905      17.31918750      17.23757262      17.13521431      17.00688016      16.85731907      16.69683380      16.53603429      16.38323237      16.24126874      16.11170244      16.00069271      15.91214054      15.84463782
        15.79458005      15.75680117      15.72575429      15.69782750      15.67140735      15.64573162      15.62034681      15.59474484      15.56824231      15.54121473      15.51573852      15.49390153      15.47610932      15.46104028      15.44660854      15.43152331      15.41631791      15.40299328      15.39337086      15.38764447
        15.38458554      15.38264021      15.38090492      15.37947250      15.37894459      15.37970070      15.38144418      15.38340000      15.38486471      15.38545886      15.38540047      15.38503057      15.38410208      15.38135667      15.37488589      15.36271443      15.34337861      15.31972845      15.29696425      15.27944789
        15.27256427      15.27288324      15.27577158      15.27933118      15.28244004      15.28515668      15.28750925      15.28950263      15.29098940      15.29201169      15.29242695      15.29187170      15.28982104      15.28608665      15.28128666      15.27660575      15.27308506      15.27123335      15.27082849      15.27133129
        15.27230758      15.27378182      15.27621230      15.27987114      15.28459795      15.28990552      15.29540679      15.30098643      15.30666486      15.31226183      15.31772220      15.32298454      15.32772500      15.33123057      15.33306897      15.33388020      15.33502848      15.33677390      15.33873483      15.34019289
        17.87452537      17.86480605      17.84732726      17.81913181      17.77751029      17.72252651      17.65684479      17.58232452      17.49685820      17.39222039      17.26002323      17.10144787      16.92619127      16.74705497      16.57528432      16.41521463      16.26717422      16.13645720      16.02991799      15.94989886
        15.89412548      15.85530831      15.82491789      15.79707378      15.76937525      15.74113702      15.71228090      15.68307273      15.65322966      15.62264857      15.59285214      15.56624532      15.54411749      15.52574364      15.50899156      15.49196475      15.47448858      15.45832763      15.44571321      15.43744425
        15.43264692      15.42970443      15.42731506      15.42506721      15.42344601      15.42320801      15.42442118      15.42629009      15.42784517      15.42854626      15.42857738      15.42833479      15.42770658      15.42553580      15.41999941      15.40859362      15.38729221      15.35649755      15.32381011      15.29959642
        15.29802589      15.30441729      15.31101832      15.31689991      15.32169705      15.32525132      15.32761726      15.32931737      15.33037673      15.33057902      15.32978003      15.32811176      15.32542183      15.32124280      15.31551713      15.30917581      15.30383005      15.30050637      15.29900585      15.29866500
        15.29901468      15.30001704      15.30191245      15.30481655      15.30879872      15.31376307      15.31933402      15.32485654      15.32999595      15.33500235      15.34023137      15.34551126      15.35034117      15.35420507      15.35681483      15.35820676      15.35890315      15.35946818      15.36044334      15.36162497
        18.17546017      18.16073920      18.13696223      18.10307154      18.05584931      17.99451690      17.92161474      17.84014925      17.74973356      17.64289910      17.50884427      17.34441124      17.15722905      16.96154617      16.77178402      16.59442844      16.42925860      16.27988147      16.15487504      16.06073963
        15.99792169      15.95707661      15.92688879      15.89909162      15.86982600      15.83847525      15.80573328      15.77262100      15.73925065      15.70524508      15.67156066      15.64054091      15.61405997      15.59205035      15.57266880      15.55371175      15.53424208      15.51537030      15.49950024      15.48826349
        15.48141556      15.47733831      15.47429408      15.47141814      15.46901681      15.46790066      15.46835159      15.46981043      15.47134735      15.47226743      15.47236016      15.47174439      15.47070865      15.46859774      15.46363896      15.45280285      15.43028915      15.39220913      15.34383372      15.30345330
        15.31585960      15.33466185      15.34793348      15.35661517      15.36219964      15.36600752      15.36876580      15.37079556      15.37177167      15.37134073      15.36960158      15.36694400      15.36324709      15.35793920      15.35087786      15.34283177      15.33540457      15.32993605      15.32675240      15.32547213
        15.32541060      15.32601103      15.32718920      15.32918903      15.33231233      15.33646102      15.34116474      15.34593450      15.35068501      15.35550476      15.36038183      15.36526688      15.37008635      15.37451153      15.37775336      15.37913445      15.37918352      15.37905797      15.37940883      15.38001522
        18.47426490      18.45402904      18.42316034      18.38338005      18.33102302      18.26392110      18.18390239      18.09483190      17.99831174      17.88844318      17.75333594      17.58587756      17.39016192      17.17996961      16.97276824      16.77882457      16.59893411      16.43444059      16.29333674      16.18499993
        16.11326695      16.06746968      16.03431010      16.00396467      15.97169007      15.93672196      15.89983122      15.86241992      15.82528810      15.78816237      15.75126856      15.71628983      15.68542336      15.65948503      15.63719268      15.61616907      15.59476143      15.57338853      15.55444729      15.54020381
        15.53102540      15.52555882      15.52195600      15.51887770      15.51598045      15.51384855      15.51322573      15.51407011      15.51544627      15.51635885      15.51634861      15.51549364      15.51418335      15.51177033      15.50649734      15.49579499      15.47408373      15.43302401      15.36872676      15.30288703
        15.33725929      15.37050303      15.38956951      15.39980332      15.40564234      15.40958734      15.41228207      15.41389753      15.41460753      15.41411287      15.41194377      15.40815300      15.40294421      15.39618939      15.38772252      15.37773846      15.36769286      15.35964965      15.35457791      15.35205512
        15.35110211      15.35097832      15.35150166      15.35274072      15.35477745      15.35763902      15.36129389      15.36551834      15.36992394      15.37419875      15.37845033      15.38293799      15.38749097      15.39159943      15.39464817      15.39634562      15.39692371      15.39686100      15.39676612      15.39707126
        18.76790819      18.74247988      18.70438527      18.65861802      18.60186854      18.53042186      18.44456437      18.34797551      18.24413376      18.12971701      17.99325729      17.82459942      17.62353874      17.40161486      17.17837911      16.96876666      16.77625835      16.60069791      16.44817178      16.32808389
        16.24452198      16.18863455      16.14764046      16.11152404      16.07473508      16.03548953      15.99407988      15.95216513      15.91113135      15.87084001      15.83095537      15.79244387      15.75745730      15.72748675      15.70192200      15.67858246      15.65542276      15.63211478      15.61054647      15.59330565
        15.58155697      15.57449694      15.57021463      15.56685240      15.56354281      15.56067610      15.55914033      15.55920016      15.56009004      15.56079805      15.56067923      15.55949400      15.55738111      15.55403983      15.54844931      15.53892392      15.52139682      15.48958631      15.44267138      15.39947048
        15.40915182      15.42642791      15.43865382      15.44666309      15.45192641      15.45505180      15.45695606      15.45826308      15.45910055      15.45863429      15.45587590      15.45093966      15.44431741      15.43595017      15.42561634      15.41344598      15.40101454      15.39057036      15.38316933      15.37862982
        15.37621331      15.37506983      15.37462208      15.37467568      15.37542375      15.37719272      15.38000122      15.38344147      15.38711058      15.39093327      15.39493304      15.39898420      15.40286949      15.40654544      15.40985142      15.41231104      15.41339417      15.41333581      15.41311144      15.41336150
        19.05315702      19.02360028      18.97838797      18.92622231      18.86567431      18.79170927      18.70210629      18.59917463      18.48763616      18.36726012      18.22824288      18.05853303      17.85409199      17.62346588      17.38643444      17.16201177      16.95783164      16.77370828      16.61281473      16.48227875
        16.38533816      16.31600177      16.26386932      16.21949952      16.17674904      16.13290082      16.08743792      16.04140279      15.99630631      15.95253390      15.90974713      15.86821579      15.82954051      15.79557488      15.76654491      15.74076844      15.71598899      15.69108662      15.66724208      15.64719391
        15.63280215      15.62379083      15.61840429      15.61465183      15.61127179      15.60804757      15.60560261      15.60462827      15.60483476      15.60522057      15.60481244      15.60316116      15.60052405      15.59700553      15.59186338      15.58378851      15.57085310      15.55014460      15.52099590      15.49309671
        15.48605831      15.48825620      15.49236823      15.49656357      15.50034666      15.50288866      15.50440121      15.50472808      15.50420202      15.50273470      15.49950940      15.49411955      15.48655877      15.47681047      15.46501307      15.45122110      15.43639565      15.42273279      15.41206628      15.40486749
        15.40045489      15.39772325      15.39593092      15.39492122      15.39484175      15.39577788      15.39762726      15.40019496      15.40328900      15.40662725      15.40990616      15.41318289      15.41665290      15.42030921      15.42372677      15.42637151      15.42800738      15.42875298      15.42882692      15.42871099
        19.32422985      19.29251696      19.24209362      19.18434658      19.12029252      19.04464772      18.95309522      18.84578582      18.72713156      18.59952518      18.45618495      18.28481986      18.07831782      17.84161804      17.59292827      17.35443264      17.13857917      16.94611121      16.77698028      16.63566963
        16.52519874      16.44191048      16.37772414      16.32425600      16.27541025      16.22761854      16.17890117      16.12912037      16.07993288      16.03254923      15.98689857      15.94267936      15.90079652      15.86321422      15.83086514      15.80257151      15.77608437      15.74979809      15.72416954      15.70161125
        15.68438605      15.67296733      15.66611431      15.66179166      15.65823716      15.65468492      15.65156645      15.64978965      15.64936035      15.64937483      15.64880093      15.64713998      15.64454756      15.64113710      15.63649341      15.62990163      15.62070282      15.60772408      15.59010505      15.57091891
        15.55835346      15.55206440      15.54887818      15.54777633      15.54890516      15.55038342      15.55099457      15.54988488      15.54797858      15.54588851      15.54264592      15.53725924      15.52944935      15.51915423      15.50629781      15.49055563      15.47258622      15.45510707      15.44080752      15.43050853
        15.42367365      15.41925915      15.41635426      15.41445094      15.41336705      15.41317835      15.41401330      15.41574830      15.41801349      15.42053115      15.42336169      15.42668751      15.43031730      15.43391237      15.43720043      15.43996722      15.44180012      15.44226717      15.44161964      15.44094036
        19.57669725      19.54527598      19.49224215      19.42994112      19.36232562      19.28518507      19.19279828      19.08282197      18.95826265      18.82333121      18.67472612      18.50103087      18.29262052      18.05128301      17.79282363      17.54063750      17.31166431      17.10933582      16.93154066      16.77956122
        16.65614553      16.55966093      16.48415227      16.42235618      16.36799014      16.31654909      16.26515792      16.21283411      16.16067968      16.11015337      16.06178539      16.01535251      15.97105483      15.93039477      15.89473148      15.86363410      15.83523605      15.80760353      15.78034775      15.75536876
        15.73536301      15.72155963      15.71307932      15.70785682      15.70395185      15.70029433      15.69685429      15.69437060      15.69327079      15.69308277      15.69277601      15.69155531      15.68930862      15.68636395      15.68281674      15.67804967      15.67136214      15.66215748      15.65059434      15.63730326
        15.62427490      15.61313713      15.60411069      15.59831990      15.59651755      15.59609223      15.59566604      15.59417501      15.59162238      15.58857565      15.58461925      15.57900919      15.57118995      15.56055771      15.54667629      15.52929218      15.50892637      15.48812749      15.47003640      15.45629667
        15.44688576      15.44066262      15.43629712      15.43299540      15.43060357      15.42934331      15.42930135      15.43025225      15.43194807      15.43428033      15.43710703      15.44015475      15.44316849      15.44612050      15.44889144      15.45104903      15.45210608      15.45214675      15.45174366      15.45144093
        19.80754033      19.77820138      19.72504384      19.65971155      19.58885180      19.51015028      19.41730183      19.30577656      19.17650899      19.03438228      18.87945124      18.70249074      18.49209952      18.24684888      17.97983476      17.71437403      17.47117516      17.25750269      17.07079040      16.90865561
        16.77297483      16.66439100      16.57876468      16.50954700      16.45031266      16.39613363      16.34362332      16.29074828      16.23736638      16.18477603      16.13422862      16.08595073      16.03959129      15.99611953      15.95723126      15.92327355      15.89282695      15.86383599      15.83530512      15.80850837
        15.78607843      15.76971068      15.75910329      15.75255751      15.74810051      15.74426149      15.74061131      15.73781549      15.73655680      15.73657062      15.73679602      15.73630997      15.73488331      15.73282188      15.73025710      15.72661858      15.72152219      15.71468926      15.70604885      15.69513754
        15.68251286      15.67043300      15.65905940      15.64908020      15.64274684      15.63957462      15.63833666      15.63651982      15.63292951      15.62868177      15.62407700      15.61827023      15.61030323      15.59948027      15.58541006      15.56763109      15.54582011      15.52188155      15.49975801      15.48233944
        15.46998470      15.46148577      15.45543929      15.45092686      15.44756148      15.44532339      15.44431081      15.44452954      15.44577285      15.44759908      15.44959642      15.45168422      15.45394188      15.45625143      15.45825206      15.45963550      15.46038848      15.46066602      15.46045139      15.45997112
        20.01612422      19.98958544      19.93813107      19.87131255      19.79734300      19.71640398      19.62285507      19.51055521      19.37761759      19.22819952      19.06542817      18.88380205      18.67158277      18.42343126      18.14870668      17.87037079      17.61245829      17.38590123      17.18927572      17.01772439
        16.87144507      16.75247936      16.65818046      16.58293951      16.52053122      16.46541305      16.41322202      16.36108456      16.30809678      16.25495990      16.20302250      16.15321694      16.10526297      16.05964717      16.01801073      15.98127303      15.94864736      15.91831299      15.88883940      15.86061469