# File generated by Flopy version 3.5.0 on 03/06/2024 at 10:48:00.
BEGIN options
END options

BEGIN griddata
  icelltype
    CONSTANT  0
  k
    INTERNAL  FACTOR  1.0
    7.41171846E-05  6.76846128E-05  6.86091683E-05  7.35292543E-05  7.89793548E-05  8.48993742E-05  9.04126897E-05  9.56237782E-05  1.02678847E-04  1.09468570E-04  1.12966718E-04  1.10421667E-04  1.04361372E-04  1.02843498E-04  1.06956664E-04  1.16292827E-04  1.25911917E-04  1.28697850E-04  1.21278812E-04  1.08805106E-04
    1.01257156E-04  1.00936862E-04  1.05878268E-04  1.13396196E-04  1.20152517E-04  1.26299382E-04  1.36002813E-04  1.55979904E-04  1.86873787E-04  2.19213681E-04  2.38553418E-04  2.36697063E-04  2.22753954E-04  2.11264343E-04  2.08731409E-04  2.10846795E-04  2.04351556E-04  1.82423949E-04  1.52615345E-04  1.27643639E-04
    1.13426809E-04  1.09179457E-04  1.11929267E-04  1.13237067E-04  1.07460857E-04  9.61437402E-05  8.21953818E-05  6.94788154E-05  5.55444775E-05  4.38596707E-05  3.32243811E-05  2.24950724E-05  1.50543860E-05  9.55188270E-06  7.81935615E-06  7.82711205E-06  1.01108771E-05  1.40633183E-05  1.60376434E-05  1.94856851E-05
    2.50368704E-05  3.26230453E-05  4.10310996E-05  4.83008239E-05  5.45567495E-05  5.97929590E-05  6.48158114E-05  6.88766966E-05  6.90447046E-05  6.43553646E-05  5.74468268E-05  5.28430232E-05  5.15802271E-05  5.25264777E-05  5.39660240E-05  5.16124156E-05  4.51318049E-05  3.75881841E-05  3.26310457E-05  3.11492692E-05
    3.16977262E-05  3.37727836E-05  3.53732658E-05  3.63573147E-05  3.79917869E-05  4.13710102E-05  4.61216816E-05  4.82037808E-05  4.47519813E-05  3.67736070E-05  2.73826828E-05  2.03962546E-05  1.63285769E-05  1.62120040E-05  1.49345505E-05  1.12556674E-05  9.11742195E-06  6.74465837E-06  5.43817200E-06  4.58114609E-06
    7.64506039E-05  7.26576165E-05  7.18184443E-05  7.60064318E-05  8.13054822E-05  8.77934376E-05  9.31270371E-05  9.66303668E-05  1.01044885E-04  1.05714007E-04  1.09314798E-04  1.08182550E-04  1.02592189E-04  1.00061285E-04  1.02294506E-04  1.09967774E-04  1.19368082E-04  1.24353625E-04  1.19415585E-04  1.06822700E-04
    9.69876836E-05  9.43080089E-05  9.82903272E-05  1.06760597E-04  1.16490010E-04  1.25660174E-04  1.36243287E-04  1.55450516E-04  1.86593128E-04  2.23730851E-04  2.52473003E-04  2.58795197E-04  2.46332065E-04  2.30489017E-04  2.22821671E-04  2.22708476E-04  2.18172625E-04  1.98852624E-04  1.67435919E-04  1.38025718E-04
    1.19106512E-04  1.11415169E-04  1.12895688E-04  1.15365142E-04  1.11741054E-04  1.00808720E-04  8.61375186E-05  7.28484348E-05  5.86742928E-05  4.76429025E-05  3.71899291E-05  2.63579101E-05  1.79919908E-05  1.12273132E-05  8.24815662E-06  6.31035013E-06  7.97584267E-06  1.21357204E-05  1.41705852E-05  1.70156209E-05
    2.12325572E-05  2.78210568E-05  3.57256881E-05  4.34439240E-05  5.03410308E-05  5.55710861E-05  6.05529925E-05  6.53260237E-05  6.78651443E-05  6.60945243E-05  6.05963321E-05  5.59260072E-05  5.40011076E-05  5.44941910E-05  5.62707878E-05  5.53430421E-05  4.99160540E-05  4.18637002E-05  3.56906984E-05  3.30433832E-05
    3.29036802E-05  3.48339909E-05  3.64156485E-05  3.69720682E-05  3.73124634E-05  3.89725535E-05  4.25926511E-05  4.52605919E-05  4.40846727E-05  3.81312522E-05  2.98459430E-05  2.25968621E-05  1.74528286E-05  1.69121297E-05  1.59251440E-05  1.28552652E-05  1.01011966E-05  7.57316528E-06  6.54165812E-06  4.92667904E-06
    8.27938939E-05  7.83785007E-05  7.62002724E-05  7.95605307E-05  8.47743987E-05  9.18311838E-05  9.73456602E-05  9.96109110E-05  1.01342102E-04  1.03334276E-04  1.06105742E-04  1.05984782E-04  1.01606778E-04  9.83290801E-05  9.88983158E-05  1.04732587E-04  1.13149985E-04  1.19570492E-04  1.17311821E-04  1.05759244E-04
    9.42287313E-05  8.90168713E-05  9.13098833E-05  9.94986081E-05  1.11134765E-04  1.23247149E-04  1.35304585E-04  1.53754590E-04  1.83654522E-04  2.22951797E-04  2.59326803E-04  2.75159182E-04  2.67155235E-04  2.48544322E-04  2.35389443E-04  2.31726413E-04  2.28362991E-04  2.12942346E-04  1.82207237E-04  1.49447138E-04
    1.25828107E-04  1.14253047E-04  1.13706820E-04  1.16898198E-04  1.15817682E-04  1.06106963E-04  9.10613032E-05  7.66109122E-05  6.15167077E-05  5.07906870E-05  4.07682524E-05  3.03134625E-05  2.12930074E-05  1.37580592E-05  9.75045212E-06  5.71749436E-06  5.80919643E-06  9.80365543E-06  1.22759588E-05  1.50586742E-05
    1.83378960E-05  2.39513440E-05  3.08410990E-05  3.83758881E-05  4.57896757E-05  5.11349729E-05  5.59240601E-05  6.08227960E-05  6.50091264E-05  6.60225489E-05  6.26175052E-05  5.84210340E-05  5.59316105E-05  5.59041898E-05  5.76121567E-05  5.81208768E-05  5.44736026E-05  4.68151477E-05  3.97906454E-05  3.58381560E-05
    3.47317267E-05  3.62234812E-05  3.78030522E-05  3.81585323E-05  3.75233757E-05  3.76674076E-05  3.99025808E-05  4.25130869E-05  4.29669021E-05  3.90426132E-05  3.21408568E-05  2.50130395E-05  1.92352918E-05  1.80166282E-05  1.72106612E-05  1.49211565E-05  1.14967090E-05  8.35059392E-06  7.24887358E-06  5.07026766E-06
    8.87687191E-05  8.44175130E-05  8.12043179E-05  8.36965846E-05  8.89745029E-05  9.68377917E-05  1.02975777E-04  1.04677498E-04  1.03860175E-04  1.02710680E-04  1.03729413E-04  1.03846773E-04  1.01025470E-04  9.76811473E-05  9.70279367E-05  1.01017071E-04  1.07809608E-04  1.14771867E-04  1.14942328E-04  1.05244749E-04
    9.28824036E-05  8.53610223E-05  8.55744286E-05  9.25395380E-05  1.04862873E-04  1.19339042E-04  1.33225147E-04  1.51212398E-04  1.79001444E-04  2.18010456E-04  2.59258396E-04  2.84385053E-04  2.83282817E-04  2.64179839E-04  2.45863636E-04  2.37468236E-04  2.33874357E-04  2.22699738E-04  1.95364379E-04  1.61205077E-04
    1.33319705E-04  1.17659900E-04  1.14345197E-04  1.17472757E-04  1.18924428E-04  1.11463226E-04  9.69997368E-05  8.14268556E-05  6.50891177E-05  5.37157313E-05  4.36744191E-05  3.39387968E-05  2.45078484E-05  1.64689427E-05  1.19132757E-05  6.77448379E-06  4.81437183E-06  7.30504876E-06  1.00723420E-05  1.31446358E-05
    1.59361645E-05  2.08921251E-05  2.67650333E-05  3.36757031E-05  4.12164978E-05  4.67944537E-05  5.13336859E-05  5.58794530E-05  6.09889884E-05  6.42628738E-05  6.33417523E-05  6.02073909E-05  5.74180632E-05  5.68250689E-05  5.80234770E-05  5.95791474E-05  5.81548528E-05  5.18536063E-05  4.46926237E-05  3.96394723E-05
    3.74531267E-05  3.81036073E-05  3.94862210E-05  3.97834001E-05  3.84091702E-05  3.72513751E-05  3.80425333E-05  4.01486737E-05  4.16160871E-05  3.95577729E-05  3.42300480E-05  2.74652557E-05  2.12741876E-05  1.92450767E-05  1.85481209E-05  1.72523875E-05  1.37949856E-05  9.94017602E-06  8.07011698E-06  4.88117656E-06
    9.39903180E-05  9.05653930E-05  8.66821236E-05  8.81401068E-05  9.33306006E-05  1.02138470E-04  1.09490422E-04  1.11596216E-04  1.08746692E-04  1.04298187E-04  1.02660966E-04  1.02056692E-04  1.00487169E-04  9.77175544E-05  9.65786923E-05  9.90584332E-05  1.03912266E-04  1.10478346E-04  1.12495385E-04  1.05084958E-04
    9.27040710E-05  8.33271295E-05  8.13813302E-05  8.65551787E-05  9.85121449E-05  1.14455980E-04  1.30246033E-04  1.48173326E-04  1.73511704E-04  2.10335158E-04  2.53334118E-04  2.86124904E-04  2.93365441E-04  2.76390429E-04  2.54015837E-04  2.40114884E-04  2.34580850E-04  2.26782565E-04  2.04866988E-04  1.72074040E-04
    1.41202303E-04  1.21609351E-04  1.14991670E-04  1.17120341E-04  1.20592749E-04  1.16029569E-04  1.03189930E-04  8.71389158E-05  7.00190224E-05  5.74579921E-05  4.65191800E-05  3.72892700E-05  2.74249696E-05  1.89003601E-05  1.39379515E-05  8.66119097E-06  5.58802955E-06  5.66927132E-06  7.97276080E-06  1.11087829E-05
    1.36752225E-05  1.83195250E-05  2.34262918E-05  2.96316253E-05  3.69148300E-05  4.28211350E-05  4.72136849E-05  5.10533559E-05  5.63966409E-05  6.11801653E-05  6.26839541E-05  6.11428243E-05  5.84787483E-05  5.73665625E-05  5.78569849E-05  5.97657770E-05  6.05091192E-05  5.63465222E-05  4.99169749E-05  4.42549153E-05
    4.11270190E-05  4.07167307E-05  4.15724391E-05  4.18046755E-05  3.98716798E-05  3.75734767E-05  3.69336935E-05  3.82259242E-05  4.01472973E-05  3.97064513E-05  3.61055514E-05  3.00115862E-05  2.35881484E-05  2.05045412E-05  1.96463634E-05  1.92754349E-05  1.65443947E-05  1.27464945E-05  9.89638491E-06  5.31969173E-06
    9.78469560E-05  9.63831586E-05  9.26016796E-05  9.29176398E-05  9.76708457E-05  1.07100478E-04  1.15956768E-04  1.19614020E-04  1.15659558E-04  1.08250796E-04  1.03314218E-04  1.01044029E-04  1.00013772E-04  9.79519443E-05  9.70254135E-05  9.86194857E-05  1.01680814E-04  1.07106401E-04  1.10188979E-04  1.05204159E-04
    9.34823606E-05  8.27500407E-05  7.87494031E-05  8.18182579E-05  9.26214032E-05  1.09090515E-04  1.26630788E-04  1.44969471E-04  1.67984781E-04  2.01418877E-04  2.43285220E-04  2.80987760E-04  2.96720531E-04  2.84424383E-04  2.59858626E-04  2.40355826E-04  2.31295324E-04  2.25133408E-04  2.09105801E-04  1.80412831E-04
    1.48706111E-04  1.25870232E-04  1.15803197E-04  1.16138098E-04  1.20782735E-04  1.19317296E-04  1.08916281E-04  9.30655675E-05  7.56791419E-05  6.21797917E-05  5.02958403E-05  4.10733105E-05  3.03159637E-05  2.11085543E-05  1.55749336E-05  1.02536863E-05  7.02974623E-06  5.37036885E-06  6.81393455E-06  9.28866877E-06
    1.15247374E-05  1.60626257E-05  2.06089583E-05  2.61852603E-05  3.29739202E-05  3.92354064E-05  4.37956821E-05  4.69280104E-05  5.19089638E-05  5.73523563E-05  6.07747527E-05  6.11215250E-05  5.90389041E-05  5.75395119E-05  5.74054554E-05  5.91267517E-05  6.14459257E-05  5.98334818E-05  5.50016486E-05  4.93676912E-05
    4.55602404E-05  4.41085003E-05  4.42156242E-05  4.42314931E-05  4.18855772E-05  3.85978467E-05  3.65425752E-05  3.67913342E-05  3.86452992E-05  3.94323218E-05  3.76119223E-05  3.25879335E-05  2.63185644E-05  2.20643642E-05  2.05386632E-05  2.07422890E-05  1.89255941E-05  1.59798142E-05  1.28210659E-05  7.50735648E-06
    9.97672297E-05  1.01048272E-04  9.84996170E-05  9.80412562E-05  1.02187512E-04  1.11616329E-04  1.21534434E-04  1.27679056E-04  1.23808450E-04  1.14115171E-04  1.05730911E-04  1.01117704E-04  9.98352257E-05  9.81888370E-05  9.77765803E-05  9.91172049E-05  1.00817997E-04  1.04722658E-04  1.08086812E-04  1.05434392E-04
    9.50071910E-05  8.34704604E-05  7.75884723E-05  7.83848033E-05  8.74263148E-05  1.03525863E-04  1.22429597E-04  1.41659042E-04  1.63004437E-04  1.92573223E-04  2.31125090E-04  2.70540396E-04  2.93482757E-04  2.87727876E-04  2.63365075E-04  2.39064852E-04  2.25419930E-04  2.18844224E-04  2.07715233E-04  1.84884088E-04
    1.54790568E-04  1.29965654E-04  1.16712595E-04  1.14788387E-04  1.19675011E-04  1.21214800E-04  1.13924404E-04  9.88756105E-05  8.13508142E-05  6.69862103E-05  5.47543721E-05  4.57201259E-05  3.39436382E-05  2.36600319E-05  1.70865766E-05  1.13647856E-05  8.03625331E-06  5.52887111E-06  6.59733783E-06  8.15416410E-06
    9.81986184E-06  1.41744175E-05  1.82443207E-05  2.32764111E-05  2.93651576E-05  3.58576603E-05  4.09161124E-05  4.37542061E-05  4.81211225E-05  5.35025025E-05  5.80843929E-05  6.01604432E-05  5.90445939E-05  5.73721027E-05  5.66441615E-05  5.80263318E-05  6.11967595E-05  6.21230681E-05  5.95714678E-05  5.46935931E-05
    5.05777204E-05  4.81613417E-05  4.74217660E-05  4.70484683E-05  4.44184058E-05  4.03321903E-05  3.69116147E-05  3.59484200E-05  3.72719271E-05  3.87458664E-05  3.85516138E-05  3.49207722E-05  2.92541156E-05  2.42087972E-05  2.16202160E-05  2.18083374E-05  2.06330772E-05  1.87472918E-05  1.59798679E-05  1.10236960E-05
    9.96660359E-05  1.03842293E-04  1.03498888E-04  1.03085677E-04  1.06859514E-04  1.15953515E-04  1.26126546E-04  1.34805708E-04  1.32207913E-04  1.21125128E-04  1.09506729E-04  1.02151512E-04  9.99362302E-05  9.84825605E-05  9.84707347E-05  9.98678848E-05  1.00727825E-04  1.03027915E-04  1.05971988E-04  1.05316621E-04
    9.68146369E-05  8.52439057E-05  7.77507661E-05  7.62492583E-05  8.30609015E-05  9.79145062E-05  1.17540627E-04  1.37920197E-04  1.58589039E-04  1.84625334E-04  2.18678978E-04  2.56936879E-04  2.84704686E-04  2.86176741E-04  2.64413529E-04  2.36879131E-04  2.18383020E-04  2.09623413E-04  2.01586516E-04  1.84960002E-04
    1.58599612E-04  1.33402781E-04  1.17509795E-04  1.13162449E-04  1.17449460E-04  1.21631189E-04  1.18111637E-04  1.04750834E-04  8.71881484E-05  7.14430374E-05  5.88097664E-05  5.04545034E-05  3.84801615E-05  2.72207992E-05  1.90512677E-05  1.25311878E-05  8.59933686E-06  5.29456079E-06  6.46429345E-06  7.48218223E-06
    8.71180525E-06  1.27506700E-05  1.64116737E-05  2.09748442E-05  2.61616468E-05  3.26075831E-05  3.82426624E-05  4.12888046E-05  4.51758491E-05  5.01957785E-05  5.53186024E-05  5.85257126E-05  5.85376646E-05  5.69720960E-05  5.55760433E-05  5.65086899E-05  5.99843800E-05  6.31609882E-05  6.33254902E-05  5.99758240E-05
    5.60661813E-05  5.28177981E-05  5.11247288E-05  5.01829593E-05  4.73635634E-05  4.27197402E-05  3.80950650E-05  3.58416390E-05  3.62661062E-05  3.78385793E-05  3.88734879E-05  3.67520545E-05  3.19770995E-05  2.67136809E-05  2.32350747E-05  2.28458529E-05  2.19047350E-05  2.08466456E-05  1.86902816E-05  1.46186148E-05
    9.80991285E-05  1.04639918E-04  1.06974210E-04  1.07379132E-04  1.11184715E-04  1.19983918E-04  1.30274441E-04  1.40614261E-04  1.39976772E-04  1.28583286E-04  1.14158456E-04  1.03837019E-04  1.00030821E-04  9.86398913E-05  9.90029755E-05  1.00429287E-04  1.00896999E-04  1.01679389E-04  1.03577779E-04  1.04318441E-04
    9.81232292E-05  8.74946700E-05  7.89485529E-05  7.53648706E-05  7.96790395E-05  9.24515324E-05  1.11936538E-04  1.33343010E-04  1.54209083E-04  1.77658666E-04  2.07109206E-04  2.42261788E-04  2.72107016E-04  2.80257369E-04  2.62996689E-04  2.34165779E-04  2.11262626E-04  1.99163208E-04  1.92259589E-04  1.80960919E-04
    1.59741178E-04  1.35853224E-04  1.18079395E-04  1.11345675E-04  1.14324270E-04  1.20362728E-04  1.21025690E-04  1.10759898E-04  9.38860441E-05  7.62568770E-05  6.22625744E-05  5.43654240E-05  4.30053932E-05  3.15559763E-05  2.18297550E-05  1.44153486E-05  9.42966266E-06  4.86399897E-06  5.95313321E-06  6.65738021E-06
    7.75602602E-06  1.15565506E-05  1.50519356E-05  1.92722417E-05  2.35656659E-05  2.96186407E-05  3.56054210E-05  3.91961190E-05  4.28287931E-05  4.74960688E-05  5.29111150E-05  5.67066023E-05  5.77190681E-05  5.64827994E-05  5.44198679E-05  5.46583285E-05  5.79479008E-05  6.28501594E-05  6.58993955E-05  6.48905215E-05
    6.18630260E-05  5.80798142E-05  5.53541659E-05  5.35886212E-05  5.05784252E-05  4.56187203E-05  4.00441957E-05  3.65555740E-05  3.58710977E-05  3.70597116E-05  3.87311924E-05  3.79849466E-05  3.42703474E-05  2.91057730E-05  2.51391904E-05  2.40393619E-05  2.31638766E-05  2.25941583E-05  2.08835602E-05  1.77804545E-05
    9.60358480E-05  1.03973530E-04  1.08928153E-04  1.10559725E-04  1.14730169E-04  1.23188544E-04  1.33845905E-04  1.45254036E-04  1.46724190E-04  1.36087297E-04  1.19386208E-04  1.06082341E-04  1.00096509E-04  9.82921080E-05  9.91456298E-05  1.00710448E-04  1.01204857E-04  1.00685585E-04  1.01030292E-04  1.02352517E-04
    9.83303014E-05  8.94840899E-05  8.07143265E-05  7.55433054E-05  7.74106007E-05  8.75284041E-05  1.05835683E-04  1.27701735E-04  1.49262295E-04  1.71245951E-04  1.96720650E-04  2.27874219E-04  2.57519267E-04  2.70951666E-04  2.59307622E-04  2.31197852E-04  2.04839907E-04  1.88845984E-04  1.81312807E-04  1.73752735E-04
    1.58197523E-04  1.37159903E-04  1.18509026E-04  1.09554877E-04  1.10679390E-04  1.17474725E-04  1.22054690E-04  1.16181837E-04  1.01485200E-04  8.26213094E-05  6.63186992E-05  5.75538801E-05  4.67845869E-05  3.57815158E-05  2.50295799E-05  1.70354480E-05  1.10514010E-05  5.17451012E-06  5.50751337E-06  5.65350845E-06
    6.59408113E-06  1.00731734E-05  1.38090478E-05  1.78878925E-05  2.15874064E-05  2.70747327E-05  3.30933109E-05  3.73669613E-05  4.08896561E-05  4.51925274E-05  5.08237059E-05  5.49810456E-05  5.68251184E-05  5.60566060E-05  5.34839630E-05  5.27846364E-05  5.53560182E-05  6.12412060E-05  6.69062114E-05  6.89066388E-05
    6.76208785E-05  6.38599182E-05  6.01971951E-05  5.73311558E-05  5.39812922E-05  4.88839361E-05  4.26281752E-05  3.80473617E-05  3.62072895E-05  3.67401717E-05  3.84626768E-05  3.87102426E-05  3.61154917E-05  3.11841314E-05  2.68958882E-05  2.51571067E-05  2.44060957E-05  2.42729209E-05  2.28771828E-05  2.06902427E-05
    9.42794603E-05  1.02619573E-04  1.09866624E-04  1.12907463E-04  1.17523543E-04  1.25408574E-04  1.36121907E-04  1.48418583E-04  1.52247723E-04  1.43467855E-04  1.25151195E-04  1.09020271E-04  1.00434219E-04  9.74818010E-05  9.85952103E-05  1.00548861E-04  1.01603273E-04  1.00284893E-04  9.89376834E-05  9.99409503E-05
    9.74550557E-05  9.07715560E-05  8.25866011E-05  7.64664248E-05  7.61691580E-05  8.35229139E-05  9.97254128E-05  1.21090271E-04  1.43344736E-04  1.64838187E-04  1.87313386E-04  2.14334244E-04  2.42250986E-04  2.59304424E-04  2.53641092E-04  2.28167394E-04  1.99671731E-04  1.79755232E-04  1.70205267E-04  1.64492017E-04
    1.54121926E-04  1.37150062E-04  1.18941543E-04  1.08138947E-04  1.07041430E-04  1.13482212E-04  1.21031315E-04  1.20072536E-04  1.08996733E-04  9.05728257E-05  7.24131004E-05  6.11722189E-05  5.02044083E-05  3.95442440E-05  2.80454565E-05  1.98526472E-05  1.31716488E-05  6.56082901E-06  5.79880516E-06  5.23563577E-06
    5.75294093E-06  8.10904659E-06  1.22990058E-05  1.64931330E-05  1.98744311E-05  2.49017653E-05  3.08099023E-05  3.58471007E-05  3.94584085E-05  4.32408943E-05  4.89477016E-05  5.33027761E-05  5.58538496E-05  5.57093562E-05  5.29698084E-05  5.12907809E-05  5.26787746E-05  5.87012665E-05  6.62414732E-05  7.14347774E-05
    7.27678834E-05  6.98463974E-05  6.55972261E-05  6.15394714E-05  5.76108447E-05  5.24278800E-05  4.57454558E-05  4.02443896E-05  3.72710299E-05  3.69991976E-05  3.83982544E-05  3.91938230E-05  3.76027283E-05  3.29996632E-05  2.84048886E-05  2.59820496E-05  2.52416148E-05  2.56130395E-05  2.47685146E-05  2.35422939E-05
    9.32649213E-05  1.01065160E-04  1.10197849E-04  1.15167619E-04  1.20148260E-04  1.27062122E-04  1.37071218E-04  1.49549349E-04  1.55848663E-04  1.50178520E-04  1.31413401E-04  1.12871110E-04  1.01410621E-04  9.66388688E-05  9.73861629E-05  9.96543024E-05  1.01714813E-04  1.00318652E-04  9.77212338E-05  9.78023662E-05
    9.60648661E-05  9.13839788E-05  8.42717250E-05  7.78530019E-05  7.57319729E-05  8.04336973E-05  9.40010227E-05  1.13872068E-04  1.36326912E-04  1.57914510E-04  1.78496028E-04  2.01788599E-04  2.27041727E-04  2.46064066E-04  2.46161110E-04  2.25013176E-04  1.96008784E-04  1.72655305E-04  1.60205622E-04  1.54506241E-04
    1.47976777E-04  1.35602665E-04  1.19235082E-04  1.07344921E-04  1.03979027E-04  1.09186201E-04  1.18347020E-04  1.22034412E-04  1.15547204E-04  9.89876035E-05  8.02908041E-05  6.62565827E-05  5.44015580E-05  4.34460789E-05  3.09061798E-05  2.25903267E-05  1.53027378E-05  8.33784894E-06  6.61338243E-06  5.79135787E-06
    6.16108111E-06  6.46872549E-06  1.05434595E-05  1.49556647E-05  1.80795447E-05  2.28214521E-05  2.86031389E-05  3.44574267E-05  3.86682805E-05  4.19618848E-05  4.73889305E-05  5.16715422E-05  5.47021829E-05  5.52452646E-05  5.27899841E-05  5.03622182E-05  5.04159785E-05  5.58113673E-05  6.42172247E-05  7.21736636E-05
    7.66632166E-05  7.55259874E-05  7.12637451E-05  6.61797142E-05  6.15313312E-05  5.62253821E-05  4.93707968E-05  4.31351237E-05  3.90623416E-05  3.78607894E-05  3.86724907E-05  3.96717156E-05  3.88705937E-05  3.46960907E-05  2.98298356E-05  2.66004052E-05  2.55540591E-05  2.62036444E-05  2.61070480E-05  2.60254228E-05
    9.34111621E-05  9.96574343E-05  1.09972552E-04  1.17543288E-04  1.23370394E-04  1.29064051E-04  1.37615636E-04  1.48899436E-04  1.56884674E-04  1.55146938E-04  1.37531669E-04  1.17566393E-04  1.03257073E-04  9.62467756E-05  9.59118614E-05  9.80379985E-05  1.01116029E-04  1.00184695E-04  9.70554473E-05  9.61725172E-05
    9.46964910E-05  9.16348346E-05  8.57325832E-05  7.95299939E-05  7.59306046E-05  7.80883507E-05  8.87477876E-05  1.06360376E-04  1.28265148E-04  1.50065847E-04  1.69781303E-04  1.90138685E-04  2.12342350E-04  2.31822293E-04  2.36893490E-04  2.21298344E-04  1.93650782E-04  1.67872907E-04  1.52221573E-04  1.45109601E-04
    1.40657924E-04  1.32516651E-04  1.19028391E-04  1.07058664E-04  1.01806878E-04  1.05345388E-04  1.14796510E-04  1.22252614E-04  1.20838065E-04  1.07174038E-04  8.87884391E-05  7.25822002E-05  5.97851916E-05  4.82784253E-05  3.44897726E-05  2.56187816E-05  1.75229909E-05  1.00840771E-05  7.21996599E-06  6.53008137E-06
    7.55137595E-06  6.26792175E-06  9.27428233E-06  1.34437235E-05  1.61806088E-05  2.06434785E-05  2.62499120E-05  3.28103092E-05  3.81246436E-05  4.16070044E-05  4.64474831E-05  5.03446893E-05  5.34734755E-05  5.44818649E-05  5.26761500E-05  4.98582553E-05  4.87333877E-05  5.30470774E-05  6.13948629E-05  7.12744743E-05
    7.88348672E-05  8.03003035E-05  7.67797541E-05  7.09832469E-05  6.56240832E-05  6.01954964E-05  5.34816167E-05  4.67702886E-05  4.16524791E-05  3.94201982E-05  3.93652610E-05  4.02244399E-05  3.99842931E-05  3.63523278E-05  3.13526035E-05  2.72870837E-05  2.56401550E-05  2.60905201E-05  2.65253832E-05  2.76002955E-05
    9.53561071E-05  9.89250083E-05  1.09380116E-04  1.19546788E-04  1.27193906E-04  1.32207425E-04  1.39014366E-04  1.47789442E-04  1.55861592E-04  1.57638493E-04  1.42379437E-04  1.22401250E-04  1.05779999E-04  9.64835113E-05  9.45345600E-05  9.61087814E-05  9.97741457E-05  9.93551118E-05  9.62535177E-05  9.46738583E-05
    9.32732665E-05  9.15414494E-05  8.70213834E-05  8.14202819E-05  7.66624883E-05  7.64118770E-05  8.39904192E-05  9.87317770E-05  1.19237233E-04  1.40997361E-04  1.60634507E-04  1.79063825E-04  1.98382640E-04  2.17152487E-04  2.25970079E-04  2.16451114E-04  1.91988958E-04  1.65210947E-04  1.46616650E-04  1.37319979E-04
    1.33311857E-04  1.28275871E-04  1.18105462E-04  1.06997190E-04  1.00451442E-04  1.02288222E-04  1.11162585E-04  1.21286302E-04  1.24880314E-04  1.15091231E-04  9.75759331E-05  7.95970319E-05  6.57610493E-05  5.38485211E-05  3.94407186E-05  2.96226463E-05  2.04953618E-05  1.23755341E-05  7.61315002E-06  6.64007113E-06
    8.70516714E-06  7.12218292E-06  9.08976365E-06  1.23964312E-05  1.45398911E-05  1.84022403E-05  2.36831984E-05  3.07106745E-05  3.71730831E-05  4.16947694E-05  4.61929863E-05  4.96467252E-05  5.25095947E-05  5.34979885E-05  5.24323065E-05  4.95675924E-05  4.74779154E-05  5.05251507E-05  5.81989740E-05  6.91121420E-05
    7.91643553E-05  8.36477553E-05  8.16782452E-05  7.55985375E-05  6.96133761E-05  6.40910811E-05  5.78567000E-05  5.11255197E-05  4.51740480E-05  4.18469357E-05  4.06535050E-05  4.09590200E-05  4.09537143E-05  3.79079452E-05  3.29743095E-05  2.82334795E-05  2.58944124E-05  2.57375516E-05  2.62625735E-05  2.81144590E-05
    9.99253107E-05  9.96055675E-05  1.08954046E-04  1.21008030E-04  1.31044569E-04  1.36407626E-04  1.41787929E-04  1.47615739E-04  1.54449117E-04  1.58136579E-04  1.45450899E-04  1.26429775E-04  1.08256285E-04  9.70853383E-05  9.32088264E-05  9.40340049E-05  9.79492997E-05  9.78758159E-05  9.49119919E-05  9.27460428E-05
    9.13614538E-05  9.06538447E-05  8.77553365E-05  8.32695660E-05  7.78000601E-05  7.53951593E-05  7.98138212E-05  9.12166973E-05  1.09437690E-04  1.30552291E-04  1.50522208E-04  1.68060885E-04  1.85117941E-04  2.02509468E-04  2.13718567E-04  2.10068036E-04  1.90264813E-04  1.64122886E-04  1.43264715E-04  1.31544891E-04
    1.26888084E-04  1.23597687E-04  1.16558412E-04  1.06979217E-04  9.97332415E-05  1.00009709E-04  1.07792670E-04  1.19578497E-04  1.27733249E-04  1.22771560E-04  1.06986828E-04  8.74497475E-05  7.20892187E-05  5.95099158E-05  4.51588455E-05  3.46156887E-05  2.46894508E-05  1.61022553E-05  8.95367784E-06  6.49791699E-06
    9.05606230E-06  7.75863984E-06  9.39935607E-06  1.19137240E-05  1.35429782E-05  1.64011124E-05  2.10397446E-05  2.82161161E-05  3.55241784E-05  4.14594810E-05  4.61953696E-05  4.94818915E-05  5.20067998E-05  5.26098655E-05  5.20691238E-05  4.93921236E-05  4.65540004E-05  4.81961122E-05  5.47686396E-05  6.59093627E-05
    7.77222295E-05  8.52512411E-05  8.55035612E-05  7.96966604E-05  7.32237694E-05  6.75918421E-05  6.20749384E-05  5.58963898E-05  4.96293956E-05  4.52960184E-05  4.27963616E-05  4.21303661E-05  4.18757819E-05  3.92995279E-05  3.45734853E-05  2.93728836E-05  2.64339017E-05  2.55690261E-05  2.59375936E-05  2.79711724E-05
    1.07639630E-04  1.02484425E-04  1.09438552E-04  1.22362474E-04  1.34714753E-04  1.41232459E-04  1.45671044E-04  1.48640321E-04  1.53771739E-04  1.57950991E-04  1.47773951E-04  1.29637718E-04  1.09914580E-04  9.75866290E-05  9.16696412E-05  9.14622931E-05  9.55189875E-05  9.61362130E-05  9.33942107E-05  9.02522602E-05
    8.87770713E-05  8.86824260E-05  8.73242306E-05  8.44854419E-05  7.90236959E-05  7.49639193E-05  7.63263005E-05  8.41698818E-05  9.93266605E-05  1.18898721E-04  1.39109135E-04  1.56593575E-04  1.72250853E-04  1.88109626E-04  2.00546586E-04  2.02004342E-04  1.87786288E-04  1.63943303E-04  1.41833121E-04  1.27727386E-04
    1.21755473E-04  1.19149254E-04  1.14706548E-04  1.07005677E-04  9.95910704E-05  9.85091441E-05  1.04816431E-04  1.17248165E-04  1.29231601E-04  1.29870348E-04  1.17132147E-04  9.66994640E-05  7.93159882E-05  6.53135580E-05  5.09141191E-05  3.98598026E-05  2.96554357E-05  2.11228029E-05  1.23763982E-05  7.70067708E-06
    9.24444320E-06  7.85277591E-06  9.33381437E-06  1.14540101E-05  1.30342278E-05  1.48920000E-05  1.86038790E-05  2.55335842E-05  3.32650237E-05  4.05323806E-05  4.59602230E-05  4.94073815E-05  5.17039298E-05  5.19292245E-05  5.16721409E-05  4.93180599E-05  4.60724732E-05  4.61649485E-05  5.12009535E-05  6.18203223E-05
    7.45030021E-05  8.48273797E-05  8.78154055E-05  8.30138313E-05  7.62624008E-05  7.04281232E-05  6.57209944E-05  6.05738121E-05  5.46920218E-05  4.97214307E-05  4.59729419E-05  4.40511130E-05  4.30007783E-05  4.05954307E-05  3.60945129E-05  3.05638240E-05  2.71162420E-05  2.55982057E-05  2.58108852E-05  2.77357218E-05
    1.18388356E-04  1.07952414E-04  1.11511526E-04  1.24270515E-04  1.38519218E-04  1.46721439E-04  1.50593082E-04  1.50618571E-04  1.53578856E-04  1.57490832E-04  1.50463485E-04  1.33466111E-04  1.11259666E-04  9.78255482E-05  8.97503572E-05  8.81669477E-05  9.20983086E-05  9.38954023E-05  9.21700061E-05  8.79469557E-05
    8.60489836E-05  8.59676813E-05  8.56820630E-05  8.46884696E-05  7.99640476E-05  7.49336989E-05  7.36168904E-05  7.80055511E-05  8.96105164E-05  1.06702195E-04  1.26524010E-04  1.44350970E-04  1.59459118E-04  1.74005248E-04  1.86809763E-04  1.92306645E-04  1.84039599E-04  1.64004481E-04  1.41917010E-04  1.25742179E-04
    1.17976248E-04  1.15225073E-04  1.12743182E-04  1.07127690E-04  1.00111035E-04  9.78793955E-05  1.02465620E-04  1.14522629E-04  1.29145574E-04  1.35648394E-04  1.27428103E-04  1.07456504E-04  8.80790208E-05  7.19906615E-05  5.70148694E-05  4.49662818E-05  3.46529598E-05  2.65224228E-05  1.72984845E-05  1.11853626E-05
    1.05970326E-05  8.46200908E-06  8.99382366E-06  1.05135073E-05  1.25463986E-05  1.37280837E-05  1.65055595E-05  2.28809780E-05  3.06328500E-05  3.89379503E-05  4.52902055E-05  4.91499450E-05  5.12653180E-05  5.11833923E-05  5.11071035E-05  4.92108283E-05  4.60870001E-05  4.47665047E-05  4.78370231E-05  5.71778083E-05
    6.96268888E-05  8.20707926E-05  8.80804148E-05  8.51882426E-05  7.86043016E-05  7.24724799E-05  6.84982885E-05  6.46506468E-05  5.98346832E-05  5.48213396E-05  5.00944156E-05  4.68433653E-05  4.46080224E-05  4.19947157E-05  3.76143217E-05  3.18152243E-05  2.78586610E-05  2.56745762E-05  2.56365706E-05  2.74554560E-05
    1.31846064E-04  1.15944557E-04  1.15439996E-04  1.27096093E-04  1.42758647E-04  1.53240347E-04  1.57016842E-04  1.53991755E-04  1.53768594E-04  1.56243236E-04  1.52680253E-04  1.38436487E-04  1.14321411E-04  9.87428388E-05  8.76904655E-05  8.43271725E-05  8.76572690E-05  9.05699715E-05  9.07112658E-05  8.64380308E-05
    8.41448954E-05  8.33937421E-05  8.34967709E-05  8.40929740E-05  8.05587656E-05  7.52064691E-05  7.17367467E-05  7.30157792E-05  8.09704663E-05  9.49805739E-05  1.13467676E-04  1.31440575E-04  1.46621744E-04  1.60274967E-04  1.72873993E-04  1.81188224E-04  1.78660911E-04  1.63671933E-04  1.43047283E-04  1.25474979E-04
    1.15656845E-04  1.12003413E-04  1.10686326E-04  1.07179091E-04  1.01266051E-04  9.82163154E-05  1.01048011E-04  1.11926891E-04  1.27652815E-04  1.39459511E-04  1.36916621E-04  1.19035001E-04  9.82999144E-05  8.00649247E-05  6.43319599E-05  5.06119189E-05  3.95764891E-05  3.18918391E-05  2.25130282E-05  1.59004287E-05
    1.34858530E-05  1.07514162E-05  9.55855060E-06  9.38434818E-06  1.18887230E-05  1.26550128E-05  1.46223207E-05  2.03103126E-05  2.78066306E-05  3.67962619E-05  4.41963761E-05  4.87388405E-05  5.06717005E-05  5.01863964E-05  5.01225538E-05  4.87573939E-05  4.62500774E-05  4.41473260E-05  4.52822223E-05  5.25961349E-05
    6.36213345E-05  7.70125256E-05  8.58220637E-05  8.56215202E-05  7.99626195E-05  7.36989898E-05  7.02647882E-05  6.77308666E-05  6.45176107E-05  6.01593836E-05  5.48763463E-05  5.03628339E-05  4.67490040E-05  4.36252351E-05  3.92484265E-05  3.33054678E-05  2.87845693E-05  2.58365756E-05  2.52996079E-05  2.68362419E-05
    1.47658727E-04  1.26357373E-04  1.21214024E-04  1.30831116E-04  1.47236817E-04  1.60564732E-04  1.65273229E-04  1.59879652E-04  1.55438077E-04  1.54442435E-04  1.53170594E-04  1.42728905E-04  1.19440677E-04  1.01768654E-04  8.66072907E-05  8.06425468E-05  8.25445623E-05  8.60713746E-05  8.82179768E-05  8.50899308E-05
    8.32597973E-05  8.16901644E-05  8.16308683E-05  8.32405120E-05  8.10413977E-05  7.58728591E-05  7.07519392E-05  6.93362418E-05  7.37936928E-05  8.45289812E-05  1.00910285E-04  1.18411264E-04  1.33893145E-04  1.47085967E-04  1.59192991E-04  1.69124871E-04  1.71491079E-04  1.62296220E-04  1.44657872E-04  1.26731160E-04