# File generated by Flopy version 3.5.0 on 03/08/2024 at 15:39:53.
BEGIN options
END options

BEGIN griddata
  icelltype
    CONSTANT  0
  k
    INTERNAL  FACTOR  1.0
    1.65825388E-04  2.82283197E-04  3.03298569E-04  2.34027372E-04  1.47501633E-04  1.28489626E-04  1.35235295E-04  1.60227891E-04  1.62537505E-04  1.87208367E-04  2.24294220E-04  2.31330152E-04  1.99277178E-04  1.51861282E-04  1.38987613E-04  1.21821624E-04  1.16575459E-04  1.14982043E-04  1.17771503E-04  1.00660057E-04
    1.01257998E-04  1.17511347E-04  1.56669624E-04  1.53817507E-04  1.55025336E-04  1.53863740E-04  2.48079553E-04  3.04371461E-04  3.05883465E-04  3.16803601E-04  4.62216867E-04  6.64079565E-04  7.54369498E-04  6.31435847E-04  7.21161560E-04  7.71919277E-04  7.20130206E-04  4.42174820E-04  3.42418888E-04  3.11291507E-04
    2.58508343E-04  1.46065052E-04  1.15783435E-04  1.06188138E-04  1.11428707E-04  7.62559331E-05  6.39195791E-05  4.85580119E-05  3.79943307E-05  2.37685249E-05  2.22907097E-05  2.01867255E-05  2.06876899E-05  1.56373605E-05  1.48350810E-05  1.33575108E-05  1.33932252E-05  8.83070841E-06  9.31198760E-06  1.25845929E-05
    1.52006526E-05  1.38065562E-05  1.37253620E-05  1.20649276E-05  1.33210926E-05  1.13325531E-05  1.05357785E-05  8.81773259E-06  1.08189639E-05  1.25155269E-05  1.47930284E-05  1.42058062E-05  1.33510106E-05  9.16178062E-06  9.07558620E-06  8.75033866E-06  1.23275305E-05  1.38417253E-05  2.21147860E-05  2.84855851E-05
    3.87451661E-05  3.39248424E-05  3.18907697E-05  2.59251733E-05  3.78244015E-05  4.09121871E-05  4.68971490E-05  4.15042093E-05  6.00006419E-05  6.56379569E-05  7.39082266E-05  7.12278815E-05  9.29797822E-05  9.60516577E-05  1.16415893E-04  1.04116196E-04  1.38785118E-04  1.25713944E-04  1.24190235E-04  9.66222401E-05
    1.89932729E-04  1.48293653E-04  1.48843976E-04  9.30414070E-05  1.04813363E-04  1.01052283E-04  1.30260781E-04  9.80260814E-05  1.46227499E-04  1.70658240E-04  2.36526869E-04  1.52313576E-04  1.36179836E-04  1.05798353E-04  1.23692481E-04  1.02226261E-04  1.15318158E-04  1.13423405E-04  1.34929964E-04  1.10209107E-04
    1.18871047E-04  1.25653234E-04  1.77994219E-04  1.82355889E-04  2.30676382E-04  3.28780474E-04  3.82924126E-04  3.44788171E-04  4.27086924E-04  5.13743506E-04  7.12655772E-04  5.89186826E-04  6.27164435E-04  5.86195625E-04  7.00236037E-04  4.58290291E-04  3.82321881E-04  2.96727009E-04  3.35448191E-04  2.19959230E-04
    1.73950887E-04  9.10169001E-05  8.50126540E-05  6.33564485E-05  8.12427140E-05  6.98723165E-05  7.91122584E-05  5.11269710E-05  3.91388999E-05  2.56589459E-05  2.26592178E-05  1.47752020E-05  1.38732757E-05  1.55051030E-05  1.87264251E-05  1.41844266E-05  1.08600184E-05  1.07450568E-05  1.52844737E-05  1.67782593E-05
    1.64551327E-05  1.43291749E-05  1.74587687E-05  1.62710694E-05  1.20920364E-05  1.01500380E-05  1.33458428E-05  1.38554107E-05  1.48888585E-05  1.26146110E-05  1.55878539E-05  1.26168667E-05  1.28285339E-05  1.08979565E-05  1.11802228E-05  1.15043068E-05  1.61099014E-05  1.86423271E-05  3.27633675E-05  3.65250298E-05
    4.24925659E-05  3.74390228E-05  4.14578220E-05  3.46666138E-05  3.57895766E-05  3.62941550E-05  4.61712321E-05  6.13155268E-05  8.27107298E-05  8.45869933E-05  1.02812963E-04  1.05803320E-04  1.42848379E-04  1.23953147E-04  9.49870051E-05  7.82682520E-05  8.86777873E-05  9.28045494E-05  8.79204171E-05  8.69646322E-05
    9.22261021E-05  7.36409940E-05  8.29643258E-05  9.83726507E-05  9.00433086E-05  9.14031999E-05  8.97767568E-05  1.12540194E-04  1.27976289E-04  1.45166555E-04  1.27489992E-04  1.55138894E-04  1.39539278E-04  1.35652373E-04  9.77560197E-05  1.09367083E-04  1.20256749E-04  1.60201633E-04  1.37928444E-04  1.52086472E-04
    1.46984243E-04  1.93728966E-04  2.00820025E-04  2.71506023E-04  3.37850716E-04  4.43826595E-04  4.76690963E-04  5.14342497E-04  5.73592435E-04  6.52499427E-04  4.48892553E-04  4.41256405E-04  4.76124775E-04  5.29273288E-04  4.27759330E-04  3.45462687E-04  3.47719748E-04  3.68419243E-04  2.31863828E-04  1.70431393E-04
    1.16747049E-04  1.15550150E-04  7.53462245E-05  7.05487000E-05  6.31563134E-05  7.72647612E-05  6.42141722E-05  5.43094313E-05  3.13107629E-05  2.19074159E-05  1.21680978E-05  1.22423963E-05  1.28283239E-05  1.93082613E-05  1.67978896E-05  1.89494510E-05  1.94814449E-05  2.09369390E-05  1.73477088E-05  1.52302364E-05
    1.34903840E-05  1.97544853E-05  1.74849249E-05  1.65051914E-05  1.64697442E-05  2.03427659E-05  1.96455422E-05  1.82392169E-05  1.31153218E-05  1.45812827E-05  1.31250112E-05  1.42886892E-05  1.08539005E-05  1.49110412E-05  1.43660991E-05  1.64477866E-05  1.83469391E-05  3.10430619E-05  3.15426966E-05  4.16538615E-05
    3.96026850E-05  6.13847540E-05  4.90257359E-05  4.00184713E-05  3.25977433E-05  5.86539118E-05  7.43557357E-05  8.48751445E-05  7.70556297E-05  1.22491892E-04  1.48968082E-04  1.46552044E-04  9.25393247E-05  1.02941987E-04  8.95597963E-05  7.57735163E-05  6.28731733E-05  7.99301306E-05  9.93235005E-05  1.34080080E-04
    6.56772336E-05  7.70271544E-05  8.89342698E-05  9.90933633E-05  7.38684096E-05  8.23800124E-05  8.40766991E-05  9.90447703E-05  8.24921645E-05  9.66919622E-05  1.22121447E-04  1.94965276E-04  1.62802055E-04  1.40175995E-04  1.18612764E-04  1.40254886E-04  1.35532245E-04  1.82445750E-04  1.75271440E-04  2.30131357E-04
    2.30724060E-04  2.78183271E-04  2.80233406E-04  3.58001188E-04  3.75048141E-04  6.01307886E-04  6.48560617E-04  7.83576057E-04  4.89899594E-04  4.87243729E-04  4.65785543E-04  4.91700264E-04  3.73988012E-04  3.64803033E-04  3.28697797E-04  4.19668372E-04  2.83721831E-04  2.24832897E-04  1.51689623E-04  1.68691798E-04
    1.25350119E-04  8.53398185E-05  6.30243722E-05  6.60119116E-05  5.64162704E-05  4.50761360E-05  3.57979920E-05  3.82547132E-05  2.86567835E-05  2.07328239E-05  1.46550202E-05  1.70375439E-05  2.04907101E-05  2.42840603E-05  2.55842034E-05  3.39259154E-05  3.12300610E-05  2.00527549E-05  1.27064732E-05  1.56700565E-05
    1.62211879E-05  1.85028809E-05  1.80135788E-05  2.30624245E-05  2.61271078E-05  2.85727114E-05  1.68298445E-05  1.55555668E-05  1.52109963E-05  1.71064991E-05  1.49532582E-05  1.54783340E-05  1.48238156E-05  1.83775747E-05  1.95275789E-05  2.38167601E-05  2.47134500E-05  3.24160949E-05  4.24338480E-05  5.36980861E-05
    6.12176394E-05  6.14154453E-05  5.94172600E-05  5.73087184E-05  6.52113194E-05  7.86157444E-05  8.42577177E-05  9.16737358E-05  1.14930026E-04  1.34669021E-04  1.22367869E-04  9.61204491E-05  9.02747507E-05  9.52523854E-05  8.99621288E-05  8.64444018E-05  8.87901700E-05  1.38867975E-04  1.48371881E-04  1.53487136E-04
    8.11009937E-05  8.32173936E-05  8.71011846E-05  6.89266208E-05  6.88305387E-05  7.02343056E-05  6.87248964E-05  5.67721496E-05  8.19587187E-05  1.14564929E-04  1.67284624E-04  1.65501637E-04  1.64958466E-04  1.65059641E-04  2.08226342E-04  1.69136779E-04  1.73894195E-04  1.99805940E-04  3.17962560E-04  3.07277354E-04
    3.57614144E-04  3.62426079E-04  4.97581142E-04  4.94982848E-04  5.62510702E-04  5.73084355E-04  6.88037942E-04  4.94829994E-04  4.72290918E-04  4.44481829E-04  4.98565000E-04  3.71985036E-04  3.07377330E-04  2.66426230E-04  2.89236119E-04  1.88527146E-04  1.59438234E-04  1.38065151E-04  1.73843344E-04  1.39576103E-04
    9.44026262E-05  5.87677754E-05  5.74558592E-05  4.51577752E-05  3.79994732E-05  2.49920290E-05  2.96945944E-05  2.77140211E-05  3.34891579E-05  2.83676709E-05  3.30677608E-05  3.06085197E-05  3.69865640E-05  3.80650132E-05  3.72021699E-05  2.32710190E-05  1.90760781E-05  1.35962672E-05  1.68521546E-05  1.51131516E-05
    1.69042902E-05  1.77909968E-05  2.63044122E-05  2.72020043E-05  2.54973555E-05  1.98401221E-05  2.47621114E-05  2.22138500E-05  2.37375776E-05  2.03316326E-05  2.66638987E-05  2.49925185E-05  2.65878959E-05  2.10774364E-05  2.67744069E-05  2.81718897E-05  3.83873769E-05  3.35773439E-05  5.03415439E-05  5.89020767E-05
    7.86423479E-05  6.68656578E-05  8.78493907E-05  7.93127605E-05  8.46938912E-05  6.82538929E-05  8.68907540E-05  9.95088975E-05  1.29216716E-04  9.49168089E-05  9.77688608E-05  9.87826164E-05  1.37661992E-04  1.21861423E-04  1.24453712E-04  1.33196556E-04  2.11685317E-04  1.76614063E-04  1.52718608E-04  1.10736989E-04
    8.78827202E-05  5.94267835E-05  7.23588004E-05  6.27154010E-05  6.37047462E-05  5.11078719E-05  7.16183599E-05  7.28234591E-05  1.10898279E-04  1.14288503E-04  1.56223635E-04  1.88541878E-04  3.13630240E-04  2.72815031E-04  3.10486660E-04  2.75388194E-04  3.53846921E-04  3.56383256E-04  3.94120244E-04  4.20882073E-04
    5.22791287E-04  5.99741343E-04  6.75145709E-04  6.01245448E-04  5.98828748E-04  5.58093142E-04  4.72475816E-04  4.11552131E-04  3.92700532E-04  3.58335711E-04  2.86042700E-04  2.35027495E-04  2.62779207E-04  2.18699557E-04  1.63174973E-04  1.25343784E-04  1.47032826E-04  1.58743501E-04  1.36875054E-04  8.14122670E-05
    7.59300203E-05  5.75524948E-05  4.51754193E-05  2.69341391E-05  2.90879714E-05  2.93814279E-05  3.41855302E-05  3.10004801E-05  3.67055845E-05  4.74504515E-05  5.46213049E-05  4.47490448E-05  3.77227542E-05  3.03917367E-05  2.29273963E-05  1.51380187E-05  1.52747666E-05  1.64716094E-05  1.71391722E-05  1.92630730E-05
    2.16677458E-05  2.90744584E-05  2.89179032E-05  2.26558258E-05  2.60106996E-05  3.52534688E-05  4.35651321E-05  3.79277709E-05  3.41545547E-05  3.66378677E-05  4.55549156E-05  3.87653365E-05  3.04530746E-05  2.72915431E-05  2.98783405E-05  2.99087164E-05  3.48066656E-05  3.91984809E-05  4.94045757E-05  5.50975807E-05
    7.34001286E-05  8.37796457E-05  8.09799014E-05  7.12521839E-05  7.48829553E-05  8.70787840E-05  9.38369433E-05  7.79232873E-05  8.30359820E-05  1.08923860E-04  1.42551157E-04  1.52509936E-04  1.61192805E-04  2.09674173E-04  2.53094573E-04  1.99373007E-04  1.64628721E-04  1.63045919E-04  1.53571859E-04  1.60623376E-04
    6.80156614E-05  6.24362924E-05  5.68668440E-05  7.00059355E-05  6.43915464E-05  7.85398001E-05  9.14174589E-05  1.24573890E-04  1.07766608E-04  1.44187519E-04  2.09322728E-04  3.90333365E-04  3.86949222E-04  4.55917481E-04  4.44833900E-04  6.52750770E-04  5.21279005E-04  5.41372070E-04  4.43115910E-04  6.09563889E-04
    6.30611379E-04  6.77782632E-04  5.78486830E-04  6.46478279E-04  5.04826292E-04  5.01220864E-04  3.50616333E-04  2.84660756E-04  1.98402836E-04  1.87242258E-04  1.83598664E-04  2.11729036E-04  1.94646353E-04  2.07287867E-04  1.79817181E-04  1.88688020E-04  1.40714573E-04  1.14372270E-04  8.32824426E-05  9.25918851E-05
    5.79879476E-05  4.06988850E-05  2.41584653E-05  2.79415474E-05  2.83403443E-05  3.59915086E-05  3.29880539E-05  4.72120646E-05  4.05115831E-05  4.60364316E-05  3.40781058E-05  3.80261515E-05  2.65303863E-05  2.42842534E-05  1.80620161E-05  2.38642822E-05  2.13216409E-05  2.19614151E-05  2.12059720E-05  3.48127060E-05
    3.76146082E-05  3.46602149E-05  2.68589955E-05  3.66993244E-05  4.36647324E-05  6.07961242E-05  5.07750102E-05  6.40380754E-05  6.89431749E-05  6.73000267E-05  3.94764612E-05  3.35444778E-05  2.70807106E-05  3.06959432E-05  2.41734042E-05  2.91339648E-05  2.96150610E-05  4.85774727E-05  4.88823760E-05  5.98824792E-05
    5.84580695E-05  8.28183898E-05  7.38186152E-05  7.77154916E-05  7.11097084E-05  9.40897505E-05  8.00892778E-05  9.59606602E-05  1.12346592E-04  1.92703926E-04  2.06576538E-04  2.21510032E-04  2.37499453E-04  2.94100005E-04  2.31817002E-04  1.87840250E-04  1.53580273E-04  2.46754224E-04  2.50264998E-04  2.13524802E-04
    7.40630380E-05  7.31020449E-05  7.08551762E-05  7.73127223E-05  8.42307087E-05  1.06564211E-04  9.89697039E-05  1.20345972E-04  1.69361678E-04  2.59883579E-04  3.26031222E-04  4.48572448E-04  5.08487342E-04  7.59827549E-04  9.78186821E-04  8.65146134E-04  6.39723560E-04  7.03782403E-04  7.25482976E-04  6.29723218E-04
    4.88633029E-04  5.89985973E-04  6.74884378E-04  6.70534592E-04  4.17635323E-04  3.01536733E-04  2.30989005E-04  1.74154506E-04  1.19341063E-04  1.44733834E-04  1.80216192E-04  2.39021435E-04  2.26744775E-04  2.72206636E-04  2.32975554E-04  1.63061933E-04  9.41812409E-05  7.87580013E-05  6.95597529E-05  5.76588961E-05
    3.52942539E-05  2.72702428E-05  2.85548781E-05  3.28768546E-05  3.00060508E-05  3.39588220E-05  4.83529964E-05  5.28547377E-05  4.23141611E-05  3.24472522E-05  3.09844357E-05  3.46687836E-05  3.86050061E-05  3.73086978E-05  3.90183369E-05  4.09011427E-05  4.06972615E-05  3.59231236E-05  4.06227813E-05  4.64594124E-05
    4.06639118E-05  4.19870676E-05  4.28783295E-05  4.94755867E-05  5.06097997E-05  5.56640224E-05  7.53369073E-05  9.87975834E-05  7.71562635E-05  5.26865975E-05  3.61097960E-05  3.40660389E-05  2.69777374E-05  2.53066227E-05  2.47902601E-05  3.07317504E-05  3.93650920E-05  4.26866456E-05  5.57332414E-05  6.45402322E-05
    7.61222388E-05  8.02550094E-05  9.30659624E-05  9.29989414E-05  8.86883404E-05  8.59214898E-05  1.43736503E-04  1.75696120E-04  2.37314226E-04  2.10250086E-04  2.49244746E-04  2.73217856E-04  2.88741110E-04  2.23027531E-04  2.04897118E-04  2.39704627E-04  3.30579678E-04  2.63331679E-04  1.86926312E-04  1.47874319E-04
    9.36956766E-05  7.56871601E-05  8.73917352E-05  8.61087441E-05  9.88357544E-05  1.02878103E-04  1.45708586E-04  1.75733920E-04  2.94029837E-04  3.58840849E-04  4.99887515E-04  6.32200635E-04       0.00106215       0.00101452       0.00116112  9.91382198E-04       0.00100855  8.59635409E-04  8.05892441E-04  5.51657399E-04
    6.33323873E-04  5.89094925E-04  7.03799312E-04  4.27819533E-04  3.14238821E-04  2.04975946E-04  1.87000018E-04  1.36136891E-04  1.39182305E-04  1.44580843E-04  2.07070396E-04  2.10143198E-04  2.84228384E-04  2.09803740E-04  1.54532236E-04  8.21982223E-05  6.60707419E-05  4.30872962E-05  3.33064036E-05  2.37102562E-05
    3.27539575E-05  3.97132698E-05  4.72054781E-05  3.10518373E-05  4.51440101E-05  5.02731884E-05  6.51229650E-05  4.64592185E-05  4.53524685E-05  5.10959649E-05  6.66204796E-05  5.23597911E-05  6.87828619E-05  7.13770275E-05  8.30241751E-05  5.71856136E-05  5.53374007E-05  4.55524676E-05  4.59571036E-05  3.68811682E-05
    4.07152857E-05  4.16835630E-05  4.90289540E-05  4.03129551E-05  5.14686694E-05  6.21928777E-05  7.28722441E-05  5.88769199E-05  5.97201622E-05  5.05702005E-05  5.76644195E-05  3.58534101E-05  2.97860220E-05  2.67087066E-05  3.99799104E-05  3.63729943E-05  4.43766033E-05  4.55723527E-05  6.80707743E-05  7.32954485E-05
    9.75026016E-05  8.90806959E-05  1.21378917E-04  1.10169435E-04  1.45534395E-04  1.44207424E-04  2.07138313E-04  2.02011191E-04  2.22898596E-04  2.22574355E-04  2.84080239E-04  2.49280794E-04  2.99658720E-04  2.85033718E-04  3.81568829E-04  2.92257414E-04  2.31509826E-04  1.55449443E-04  1.19419171E-04  7.65807187E-05
    9.88907321E-05  7.79966101E-05  8.76312996E-05  1.01797686E-04  1.29516893E-04  1.52680679E-04  2.51361878E-04  3.32565497E-04  4.75870803E-04  5.65111086E-04       0.00102818       0.00125597       0.00133303       0.00119504       0.00138628       0.00154456       0.00137886  9.27095298E-04  8.77016610E-04  8.07918417E-04
    6.32616468E-04  4.43410584E-04  3.39038489E-04  3.62576622E-04  2.90472593E-04  2.27533496E-04  1.78149478E-04  1.65402966E-04  1.44220458E-04  1.43370425E-04  1.33484873E-04  1.40106635E-04  1.22791605E-04  1.01335386E-04  7.46725110E-05  5.76366924E-05  4.18000925E-05  2.78144953E-05  2.67925050E-05  3.31687528E-05
    4.53319076E-05  5.02542314E-05  5.77217971E-05  6.43434319E-05  7.60925134E-05  7.18960462E-05  6.54173557E-05  6.96762713E-05  9.22938844E-05  9.93572550E-05  1.02171369E-04  9.06708630E-05  8.65958262E-05  9.37909146E-05  7.56670046E-05  6.10065409E-05  4.64860348E-05  3.60357780E-05  3.40043969E-05  3.88600219E-05
    3.81718902E-05  3.66201449E-05  3.31959172E-05  4.30807313E-05  5.03613785E-05  5.36886756E-05  4.88529288E-05  5.65403313E-05  7.53799682E-05  8.14490940E-05  5.53660508E-05  4.99870525E-05  4.64680600E-05  4.86733655E-05  4.00159510E-05  3.96746750E-05  4.65206299E-05  6.87547697E-05  7.46361777E-05  7.60950956E-05
    8.90102374E-05  1.44127787E-04  1.65988171E-04  1.93630610E-04  1.86178975E-04  2.08077085E-04  1.76386288E-04  1.54249700E-04  1.78445099E-04  2.49023573E-04  2.95333519E-04  3.34962051E-04  3.70054852E-04  4.35418406E-04  3.05161304E-04  1.88759328E-04  1.24040395E-04  1.17575156E-04  9.19961838E-05  5.23535230E-05
    9.63780077E-05  1.04859541E-04  1.12875750E-04  1.64386900E-04  2.01333323E-04  3.03047956E-04  4.06941107E-04  7.21448872E-04  9.56134393E-04       0.00146132       0.00138987       0.00187843       0.00156163       0.00207798       0.00191124       0.00192415       0.00121693       0.00132056  8.35270049E-04  6.01553851E-04
    2.67492183E-04  2.52770028E-04  2.46722211E-04  2.86897289E-04  2.11728896E-04  2.21170708E-04  1.88886959E-04  1.87742990E-04  1.01582716E-04  9.14190956E-05  7.78648404E-05  7.68465366E-05  5.82527296E-05  5.64783543E-05  5.20885614E-05  5.61346511E-05  4.33723055E-05  5.19632894E-05  5.15351965E-05  6.36674004E-05
    4.68234614E-05  5.84485471E-05  7.24668108E-05  9.79014032E-05  7.68696213E-05  8.13011588E-05  8.68003247E-05  1.25989697E-04  8.99576907E-05  1.07566572E-04  9.41856867E-05  1.14488827E-04  7.67898924E-05  6.20551880E-05  4.79956718E-05  4.93771805E-05  3.86657990E-05  3.65457843E-05  3.32606689E-05  4.56112014E-05
    3.57523277E-05  3.70522044E-05  3.38780388E-05  4.13817549E-05  3.93158544E-05  4.97705349E-05  6.33961404E-05  9.14049057E-05  7.82349491E-05  7.76813288E-05  6.85265383E-05  8.11365579E-05  5.87946024E-05  5.01577978E-05  3.77903971E-05  5.50610173E-05  5.75761088E-05  7.20984203E-05  7.14915824E-05  1.12669364E-04
    1.33678210E-04  2.08179923E-04  2.05191379E-04  2.26128706E-04  1.80504162E-04  1.89854234E-04  1.75607008E-04  2.11041243E-04  1.99329795E-04  2.93756584E-04  3.49646528E-04  4.61620430E-04  3.80601755E-04  2.63872090E-04  1.62254881E-04  1.45922743E-04  1.15432723E-04  9.04201714E-05  5.89164840E-05  5.73261913E-05
    1.78718531E-04  2.01732108E-04  2.37518570E-04  2.93316364E-04  3.68618034E-04  5.88789715E-04  8.58305468E-04       0.00127210       0.00175619       0.00199984       0.00227175       0.00251077       0.00271291       0.00227759       0.00175613       0.00138725       0.00105597  7.40859307E-04  4.71852756E-04  2.56247176E-04
    2.16497904E-04  2.22523659E-04  2.22516535E-04  1.98119610E-04  1.89779252E-04  2.20814480E-04  2.07964362E-04  1.36690117E-04  8.00568914E-05  6.44138223E-05  5.62837074E-05  4.68839081E-05  4.44003173E-05  5.35398984E-05  5.90445717E-05  7.34994366E-05  8.38135827E-05  8.41433739E-05  6.89631899E-05  6.00578883E-05
    5.99181334E-05  6.61001300E-05  7.07895644E-05  6.71363194E-05  9.19332921E-05  1.25671666E-04  1.21025447E-04  8.34673294E-05  8.69630096E-05  9.97841050E-05  1.17974999E-04  7.28270012E-05  6.24106612E-05  5.36419668E-05  5.31056004E-05  3.97242728E-05  4.06611082E-05  3.80713949E-05  4.81638227E-05  3.89598495E-05
    4.04121357E-05  4.02440065E-05  4.06858945E-05  3.36451271E-05  4.16151624E-05  5.90910076E-05  8.32940367E-05  8.39034032E-05  8.02192087E-05  8.75749969E-05  1.05299885E-04  8.59464281E-05  5.89429394E-05  5.37195987E-05  6.24793615E-05  5.90863791E-05  6.64463587E-05  9.27085363E-05  1.47967510E-04  1.84536578E-04
    2.07713986E-04  1.72144427E-04  2.11146343E-04  2.05560839E-04  2.27212795E-04  2.10700817E-04  2.95280980E-04  2.82401868E-04  3.17598962E-04  2.71882119E-04  3.31291574E-04  2.44763876E-04  2.31535595E-04  1.72967304E-04  1.59437880E-04  1.11174744E-04  8.75412673E-05  5.95874140E-05  5.86266899E-05  4.51628296E-05
    4.07605897E-04  3.61208240E-04  4.84700009E-04  5.50089390E-04  8.05286118E-04  8.27628297E-04       0.00141938       0.00165603       0.00248976       0.00261013       0.00371782       0.00350696       0.00281670       0.00153147       0.00129230  7.39638534E-04  5.56826113E-04  2.84824456E-04  2.79226555E-04  2.34854292E-04
    2.20709926E-04  1.56486587E-04  1.89872730E-04  1.98714400E-04  2.52608184E-04  1.90670032E-04  1.65436494E-04  1.13434750E-04  8.29984311E-05  4.96089869E-05  4.29127431E-05  3.54504393E-05  4.90515627E-05  5.62816473E-05  7.21848535E-05  7.14119515E-05  8.18531308E-05  6.36062602E-05  6.27727110E-05  5.56125576E-05
    6.64745185E-05  5.72602614E-05  7.34718128E-05  8.40283323E-05  1.37584686E-04  1.25107368E-04  1.15986244E-04  8.07579395E-05  9.73268633E-05  8.58696440E-05  7.84320186E-05  6.05218655E-05  7.80090435E-05  6.96561484E-05  5.92405177E-05  3.32560980E-05  3.53920707E-05  3.21609793E-05  3.76462163E-05  3.69433697E-05
    4.09223587E-05  4.48830952E-05  5.07075052E-05  4.16645404E-05  4.92180483E-05  4.81256080E-05  6.71596168E-05  7.94321308E-05  1.22811640E-04  1.04170427E-04  9.79144125E-05  7.84297463E-05  8.79686299E-05  7.82360619E-05  8.21392847E-05  7.68761601E-05  1.34148102E-04  1.84417862E-04  2.49799570E-04  1.60854312E-04
    1.95966380E-04  2.01473577E-04  2.28202449E-04  2.10906979E-04  2.73511350E-04  3.24927021E-04  3.88772947E-04  2.77671973E-04  2.47534466E-04  1.98115205E-04  1.70041314E-04  1.25205596E-04  1.30849144E-04  1.33896541E-04  1.13442122E-04  6.52801589E-05  5.41483860E-05  4.83602807E-05  4.22268743E-05  2.48275426E-05
    6.73238911E-04  7.43096170E-04  8.51292653E-04  9.40257428E-04  9.52731109E-04       0.00108343       0.00151565       0.00247604       0.00338303       0.00334202       0.00326138       0.00254707       0.00182573       0.00109130  7.42090745E-04  4.60056452E-04  2.93515786E-04  2.69848252E-04  2.32366097E-04  1.95536278E-04
    1.52261697E-04  1.64358689E-04  2.17907847E-04  2.53927465E-04  1.74653627E-04  1.62308271E-04  1.36909796E-04  1.16441320E-04  5.78045843E-05  4.40666073E-05  3.78454540E-05  4.26009374E-05  3.60936254E-05  4.02302214E-05  4.56330037E-05  5.74584497E-05  4.93654304E-05  5.31592619E-05  6.01291933E-05  7.31300036E-05
    6.37092951E-05  8.52349119E-05  1.21841541E-04  1.55715476E-04  1.38734536E-04  1.26029178E-04  1.23304648E-04  1.27140646E-04  7.45937016E-05  6.38019997E-05  7.05116801E-05  9.13656475E-05  7.59667174E-05  5.82147916E-05  4.11655929E-05  3.72753277E-05  2.84505919E-05  2.59601089E-05  2.72750497E-05  4.60783762E-05
    5.32508226E-05  5.88071997E-05  5.72119811E-05  6.26033918E-05  5.35309957E-05  6.03813876E-05  7.44801113E-05  1.12692512E-04  1.10720181E-04  1.18698370E-04  1.06969143E-04  1.33240976E-04  1.24314800E-04  1.27005595E-04  1.21796846E-04  1.89189126E-04  2.17179036E-04  2.49815825E-04  1.98945902E-04  2.49307306E-04
    2.20500153E-04  2.59340635E-04  2.19563975E-04  2.29771154E-04  2.39013686E-04  3.04591549E-04  2.32244218E-04  1.95056202E-04  1.37467099E-04  1.39610233E-04  9.87719504E-05  8.78982922E-05  7.00625363E-05  6.98837022E-05  6.04449756E-05  5.41923938E-05  3.63486800E-05  3.01352012E-05  2.27619471E-05  2.71240110E-05
         0.00118795       0.00127802  9.77601092E-04       0.00102219       0.00109295       0.00170763       0.00192707       0.00251896       0.00264699       0.00311037       0.00210488       0.00185075       0.00110844  8.92448296E-04  4.90128814E-04  4.20856795E-04  2.74430298E-04  2.50157066E-04  1.74053360E-04  1.65994883E-04
    1.48861371E-04  2.13497273E-04  1.81395161E-04  1.79278607E-04  1.34489639E-04  1.50977297E-04  1.09118781E-04  8.09940501E-05  4.78177703E-05  4.71662779E-05  3.97090839E-05  3.04806830E-05  2.25547929E-05  2.81501137E-05  3.15069293E-05  4.84226674E-05  5.17692190E-05  7.03011844E-05  8.53062670E-05  1.23286523E-04
    1.24066988E-04  1.62647932E-04  1.50367883E-04  1.55063848E-04  1.21204441E-04  1.41414887E-04  9.21535242E-05  8.00374001E-05  6.27362181E-05  7.63380961E-05  6.58952708E-05  5.83672786E-05  3.99326975E-05  4.65127980E-05  3.92256617E-05  3.71088103E-05  3.05312373E-05  3.77704346E-05  4.24141317E-05  5.82563512E-05
    6.17594380E-05  8.14534490E-05  8.41559979E-05  9.05355529E-05  9.05153794E-05  1.07192483E-04  1.00998983E-04  1.00871810E-04  1.01030438E-04  1.40878519E-04  1.67018308E-04  1.69979282E-04  1.35315084E-04  1.92614548E-04  2.17148943E-04  2.23423951E-04  1.85210345E-04  2.43930385E-04  3.04574458E-04  3.20024244E-04
    2.48019620E-04  2.08565311E-04  1.84599867E-04  2.12725386E-04  1.39186113E-04  1.40519189E-04  1.50330771E-04  1.45821746E-04  1.11508260E-04  8.94014087E-05  6.98378476E-05  5.60577139E-05  4.11738408E-05  3.70206925E-05  3.33848386E-05  3.35457487E-05  2.68069665E-05  2.59904522E-05  3.03873477E-05  3.97434586E-05
         0.00149481       0.00137251       0.00132953       0.00147975       0.00163904       0.00145274       0.00150042       0.00154530       0.00181356       0.00199108       0.00202386       0.00140703       0.00102808  6.40274459E-04  5.17057712E-04  3.33120590E-04  2.54156309E-04  1.74389823E-04  1.79627991E-04  1.61745811E-04
    1.54809550E-04  1.12627613E-04  1.38456966E-04  1.35289793E-04  1.43279853E-04  9.38437865E-05  7.49773292E-05  6.19350339E-05  6.08409216E-05  4.34236693E-05  3.34885053E-05  2.60515035E-05  2.94879998E-05  3.09630849E-05  3.63962031E-05  4.50334790E-05  8.70282518E-05  1.18357535E-04  1.44172357E-04  1.62997533E-04
    1.57044994E-04  1.27592456E-04  1.09725238E-04  8.75004062E-05  1.02781372E-04  8.00601775E-05  6.91906089E-05  5.05077008E-05  5.91229682E-05  5.14196254E-05  4.15029842E-05  3.28963489E-05  5.16909540E-05  5.01037054E-05  5.56887883E-05  4.00321267E-05  5.89097062E-05  6.26189214E-05  7.35802532E-05  6.17130071E-05
    9.05731497E-05  1.09504495E-04  1.33760755E-04  9.98064027E-05  1.15569458E-04  1.13923247E-04  1.24241855E-04  1.02085383E-04  1.25832872E-04  1.39346470E-04  1.70553431E-04  1.87619315E-04  2.21278120E-04  2.22046947E-04  2.42160442E-04  2.01928719E-04  2.77177199E-04  3.55028574E-04  3.77396143E-04  2.35698846E-04
    2.25574664E-04  1.89478776E-04  1.63774370E-04  9.16736851E-05  9.54970429E-05  7.53020739E-05  1.11915419E-04  8.78872287E-05  8.49899894E-05  6.55216869E-05  5.74368792E-05  2.99262762E-05  2.76722392E-05  1.96812866E-05  2.35138744E-05  1.97746207E-05  3.18698160E-05  3.67386274E-05  4.52829652E-05  3.49301607E-05
         0.00166329       0.00163070       0.00234873       0.00181198       0.00146432       0.00108634       0.00117284       0.00121122       0.00134239       0.00109127       0.00147021       0.00120906  8.93076123E-04  4.65319269E-04  3.92449522E-04  2.65565480E-04  2.27701449E-04  1.70746091E-04  1.84101002E-04  1.22094622E-04
    1.08909298E-04  8.73853503E-05  1.12421720E-04  1.11471083E-04  9.23955621E-05  6.59839608E-05  6.89749668E-05  5.68411238E-05  4.54092744E-05  3.37054325E-05  4.07561089E-05  3.94041786E-05  4.25957602E-05  3.93671216E-05  5.46559282E-05  8.19626682E-05  1.23017778E-04  1.40080675E-04  1.54841223E-04  1.13902881E-04
    9.27349989E-05  6.33111491E-05  7.36770849E-05  5.98495560E-05  5.80466972E-05  5.26609071E-05  5.91347665E-05  4.50473555E-05  3.36341257E-05  2.60978870E-05  4.19121860E-05  5.06429936E-05  6.13444524E-05  5.37581102E-05  6.46330079E-05  7.60280272E-05  7.41372944E-05  5.98087860E-05  7.32427637E-05  9.83365657E-05
    1.23785772E-04  1.10190471E-04  1.09217571E-04  1.09090809E-04  1.19968151E-04  1.22556111E-04  1.47444207E-04  1.49574195E-04  1.43043678E-04  1.34587027E-04  1.74328716E-04  2.18169930E-04  2.77854644E-04  2.46162217E-04  2.77642783E-04  3.08369594E-04  3.70291391E-04  2.94637364E-04  2.63036282E-04  2.12079792E-04
    2.03699792E-04  1.32091526E-04  9.04226057E-05  6.38965340E-05  6.13346347E-05  6.01304100E-05  5.18983674E-05  4.46968096E-05  5.03343800E-05  4.48904736E-05  3.10603324E-05  2.03285257E-05  1.82199335E-05  1.87943008E-05  1.85043681E-05  2.11496175E-05  2.78231042E-05  3.72631345E-05  4.12588661E-05  3.96039923E-05
         0.00175114       0.00223527       0.00162275       0.00172788       0.00141401       0.00125993  9.61319951E-04  8.45281127E-04  8.03655129E-04  9.18733619E-04  7.92938587E-04  8.30856034E-04  6.01926932E-04  4.69260585E-04  3.12743331E-04  2.74371083E-04  2.03050903E-04  1.67651951E-04  1.23779540E-04  1.10746354E-04
    8.02896081E-05  8.40328627E-05  6.31477901E-05  6.52893812E-05  5.73399070E-05  6.90977235E-05  4.97429690E-05  4.30445748E-05  3.24701203E-05  4.64208140E-05  4.85419676E-05  5.41949778E-05  4.99951317E-05  7.56006849E-05  8.60635061E-05  1.04211620E-04  8.66239372E-05  9.96143369E-05  9.29820394E-05  8.62669042E-05
    4.95545956E-05  5.19818135E-05  4.58851406E-05  4.82277126E-05  4.23293115E-05  4.85907970E-05  4.27691353E-05  3.87488034E-05  2.67802899E-05  3.52394213E-05  3.87088773E-05  5.02947684E-05  4.27142865E-05  6.12063578E-05  7.42085438E-05  8.48778424E-05  6.74971477E-05  7.79553008E-05  8.90491916E-05  1.30509419E-04
    1.05337598E-04  1.11683182E-04  1.08185437E-04  1.44021599E-04  1.28857998E-04  1.60627264E-04  1.83665418E-04  2.28318729E-04  1.87825300E-04  2.04345939E-04  1.86514446E-04  2.58697584E-04  2.47784862E-04  3.89740540E-04  3.47538566E-04  3.32414778E-04  2.17477125E-04  2.45800165E-04  2.02886364E-04  1.93866477E-04
    1.05357870E-04  9.38028654E-05  6.98034116E-05  7.06558224E-05  3.51617677E-05  2.85813255E-05  2.37638551E-05  2.86572309E-05  2.24571904E-05  2.51391979E-05  1.86573565E-05  2.12187059E-05  1.90669474E-05  1.94186790E-05  1.75699918E-05  2.07494428E-05  2.19946801E-05  3.26602191E-05  3.88352400E-05  5.00923666E-05
         0.00146444       0.00148993       0.00149159       0.00188337       0.00169298       0.00121694  6.71263873E-04  6.55338718E-04  5.46488686E-04  6.01006847E-04  5.22181449E-04  5.19666097E-04  4.96691355E-04  4.84878363E-04  2.83115406E-04  2.20734322E-04  1.49340080E-04  1.39934294E-04  1.00705657E-04  9.07001295E-05
    5.50247590E-05  4.55065479E-05  3.87927747E-05  4.66911136E-05  4.09651603E-05  4.13256903E-05  3.71116489E-05  4.47419902E-05  4.89915661E-05  5.77261248E-05  5.51217878E-05  6.93336299E-05  8.92969819E-05  9.40869380E-05  6.87926088E-05  6.87785202E-05  6.93777470E-05  7.69556353E-05  6.15692264E-05  5.67560534E-05