# File generated by Flopy version 3.5.0 on 03/08/2024 at 15:39:53.
BEGIN griddata
  strt
    INTERNAL  FACTOR  1.0
        15.00000000      15.00000000      15.00000000      15.00000000      15.00000000      15.00000000      15.00000000      15.00000000      15.00000000      15.00000000      15.00000000      15.00000000      15.00000000      15.00000000      15.00000000      15.00000000      15.00000000      15.00000000      15.00000000      15.00000000
        15.00000000      15.00000000      15.00000000      15.00000000      15.00000000      15.00000000      15.00000000      15.00000000      15.00000000      15.00000000      15.00000000      15.00000000      15.00000000      15.00000000      15.00000000      15.00000000      15.00000000      15.00000000      15.00000000      15.00000000
        15.00000000      15.00000000      15.00000000      15.00000000      15.00000000      15.00000000      15.00000000      15.00000000      15.00000000      15.00000000      15.00000000      15.00000000      15.00000000      15.00000000      15.00000000      15.00000000      15.00000000      15.00000000      15.00000000      15.00000000
        15.00000000      15.00000000      15.00000000      15.00000000      15.00000000      15.00000000      15.00000000      15.00000000      15.00000000      15.00000000      15.00000000      15.00000000      15.00000000      15.00000000      15.00000000      15.00000000      15.00000000      15.00000000      15.00000000      15.00000000
        15.00000000      15.00000000      15.00000000      15.00000000      15.00000000      15.00000000      15.00000000      15.00000000      15.00000000      15.00000000      15.00000000      15.00000000      15.00000000      15.00000000      15.00000000      15.00000000      15.00000000      15.00000000      15.00000000      15.00000000
        15.19782713      15.18843797      15.19707180      15.22762133      15.24018440      15.24397358      15.23626773      15.23565359      15.22906624      15.22549010      15.22209160      15.24505993      15.25968985      15.27208496      15.26444958      15.27351606      15.27928173      15.28745811      15.27917646      15.27911489
        15.26704379      15.25099175      15.22520924      15.21145175      15.19534199      15.17807121      15.14888911      15.12333241      15.10239618      15.08409726      15.06342039      15.04936974      15.04064952      15.03654492      15.03185033      15.02972413      15.02955921      15.03155561      15.03122436      15.03202801
        15.03356454      15.03968819      15.04236660      15.04533107      15.04613626      15.05128803      15.05415925      15.05838446      15.06020149      15.06334369      15.06220860      15.06569555      15.06792822      15.07116771      15.06983264      15.06897285      15.06649781      15.06518767      15.06242725      15.05962846
        15.05840759      15.06016819      15.06055621      15.06286984      15.06542105      15.06876334      15.06982850      15.07059336      15.06896786      15.06849382      15.06659992      15.06734512      15.06735202      15.07156918      15.07229840      15.07286955      15.07216582      15.07404093      15.07128583      15.07059960
        15.06931802      15.07415829      15.07541761      15.07612665      15.07226032      15.07480174      15.07544731      15.07577049      15.07148201      15.07197312      15.07099317      15.06841384      15.06173965      15.06042176      15.05866403      15.05862076      15.05638414      15.06073422      15.06600461      15.07218912
        15.48717588      15.51057904      15.52700788      15.55159170      15.53993093      15.53428079      15.51599548      15.51060080      15.48531348      15.48615481      15.50746699      15.56316727      15.58477228      15.59900316      15.58858414      15.59222847      15.57714056      15.57312161      15.55061624      15.53980830
        15.50718589      15.47084783      15.42033009      15.37897742      15.33299156      15.29263249      15.25292986      15.21736144      15.17809971      15.14777685      15.12142816      15.10208348      15.08590367      15.07628116      15.06947117      15.06826698      15.06624894      15.06633680      15.06667606      15.07204683
        15.07701387      15.08371130      15.08852561      15.09390065      15.09446907      15.09590576      15.09824572      15.10562583      15.11210659      15.11775186      15.12057558      15.12488404      15.12692815      15.12617721      15.12147832      15.11747619      15.11161567      15.10449927      15.09744072      15.09514390
        15.09519556      15.09687992      15.09778761      15.10055990      15.10409318      15.10725252      15.10698849      15.10754119      15.10743712      15.10806784      15.10794875      15.11013068      15.11125077      15.11345541      15.11447243      15.11570691      15.11484356      15.11538067      15.11459062      15.11643276
        15.11862150      15.12211080      15.12388841      15.12653829      15.12759687      15.12861520      15.12693281      15.12454858      15.12193357      15.12058351      15.11753578      15.11464869      15.11217307      15.11358701      15.11698006      15.12088173      15.12337692      15.12839136      15.13125720      15.13288782
        15.89991008      15.90674966      15.89827865      15.87785034      15.87077765      15.85482550      15.83562418      15.80562160      15.81132174      15.83175120      15.87499818      15.90089627      15.92860270      15.94575593      15.96053163      15.93006813      15.88705869      15.84312902      15.81234816      15.76426938
        15.71064989      15.64611416      15.58391403      15.51490093      15.44667130      15.38407690      15.33393518      15.28717343      15.24367789      15.20522135      15.17893671      15.15590426      15.13702352      15.12231977      15.11405946      15.10745617      15.10475040      15.10498621      15.11149748      15.11640662
        15.12171590      15.12659233      15.13475275      15.13853004      15.14093709      15.14149959      15.14816440      15.15508637      15.16579440      15.17292674      15.17951756      15.18140216      15.18065551      15.17485472      15.16751155      15.15680932      15.14758945      15.13838646      15.13293829      15.12978966
        15.13008463      15.12977699      15.13117992      15.13219144      15.13396795      15.13554476      15.13924293      15.14197516      15.14495019      15.14596719      15.14809270      15.14860385      15.14981674      15.14906937      15.15020181      15.15009486      15.14978325      15.14792284      15.14990512      15.15184716
        15.15526350      15.15639648      15.16080626      15.16436197      15.16648615      15.16366762      15.16254400      15.16178946      15.16193164      15.15840017      15.15762766      15.15990871      15.16646007      15.16908452      15.17358585      15.17849374      15.18335821      15.18233976      15.17894663      15.17477304
        16.28842902      16.25866822      16.24475609      16.23097059      16.23269239      16.21187429      16.21362848      16.20214318      16.22074753      16.22553915      16.24668115      16.26116630      16.30525750      16.31587764      16.31333449      16.25967665      16.19612292      16.10897896      16.03409142      15.95086283
        15.87173986      15.78827781      15.71037926      15.62854624      15.54823516      15.46955144      15.40489894      15.34878384      15.30138984      15.26081966      15.23025857      15.20727371      15.19152733      15.17679766      15.16472543      15.15624111      15.15574490      15.15760772      15.16038531      15.16118744
        15.16783747      15.17633302      15.18285301      15.18567946      15.19154047      15.19896967      15.20579659      15.21025699      15.21795607      15.22589472      15.23202058      15.23019691      15.22437559      15.21631384      15.20715815      15.19506012      15.18446506      15.17576531      15.16964993      15.16496585
        15.16345408      15.16292289      15.16338188      15.16307481      15.16525318      15.16942808      15.17636439      15.18062251      15.18398597      15.18495513      15.18655003      15.18525297      15.18403195      15.18203878      15.18120369      15.17986032      15.17955484      15.17859670      15.17865672      15.17963608
        15.18262694      15.18615745      15.18972509      15.19242311      15.19443252      15.19541649      15.19587552      15.19528162      15.19560971      15.19839555      15.20331038      15.20898658      15.21417113      15.21784516      15.22103754      15.22176776      15.22100250      15.21789201      15.21525203      15.21355668
        16.62226511      16.61246975      16.60171211      16.62302130      16.62945509      16.63855868      16.64476650      16.65364598      16.62603675      16.61351416      16.61722793      16.64456745      16.65239634      16.63673650      16.59391869      16.53915341      16.44871468      16.33876549      16.21315052      16.10420135
        15.99827376      15.90248669      15.80950644      15.72344269      15.63418330      15.55301905      15.47709372      15.41317117      15.35740910      15.31575986      15.28525914      15.26603562      15.25105257      15.24078827      15.22985831      15.22396074      15.21676763      15.21220473      15.20881189      15.21355916
        15.21903092      15.22667327      15.23120525      15.24055311      15.24804893      15.25685864      15.26021371      15.26482464      15.26626668      15.26953907      15.26892484      15.26789751      15.26198405      15.25638436      15.24965494      15.24409913      15.23221148      15.22063095      15.20891043      15.20276015
        15.19884998      15.19723642      15.19565465      15.19837809      15.20303375      15.20998715      15.21404153      15.21901906      15.22158233      15.22229159      15.21885388      15.21611839      15.21286690      15.21158308      15.20893951      15.20805684      15.20642536      15.20711153      15.20596308      15.20693339
        15.20871450      15.21342765      15.21625063      15.22039021      15.22369134      15.22798445      15.22913421      15.23133357      15.23424862      15.24119159      15.24546270      15.24861297      15.25004295      15.25222732      15.25208446      15.25057787      15.24767440      15.24756797      15.24690258      15.24679979
        16.98283745      16.99653306      16.99584104      17.01874748      17.03764150      17.06034046      17.03915130      17.03029435      17.00398518      16.99180932      16.96679368      16.94768000      16.90652491      16.87274568      16.81334806      16.73852945      16.62872152      16.50812976      16.37156153      16.23487044
        16.10823771      15.99887578      15.89954452      15.80916199      15.71685866      15.63034165      15.55415568      15.48525919      15.42459800      15.38078945      15.35306821      15.33519204      15.31904632      15.30856490      15.29850825      15.28749081      15.27358332      15.26444781      15.26221383      15.26567866
        15.27036812      15.27902705      15.29016378      15.29959723      15.30352142      15.30785875      15.31165960      15.31419103      15.31227379      15.30979814      15.30933393      15.31049187      15.31072057      15.30867751      15.30437781      15.29796838      15.28399024      15.26639154      15.25031590      15.24057919
        15.23436279      15.23134986      15.23214533      15.23736747      15.24147571      15.24496258      15.24844587      15.25294024      15.25429637      15.25275525      15.24897067      15.24621828      15.24290469      15.24052011      15.23839407      15.23737148      15.23623477      15.23558017      15.23579461      15.23702748
        15.23903802      15.24262924      15.24760652      15.25261225      15.25640856      15.25976034      15.26460852      15.26923290      15.27227927      15.27376347      15.27492839      15.27609573      15.27634869      15.27497699      15.27396191      15.27420516      15.27388888      15.27209206      15.27007459      15.26858537
        17.36393461      17.36453098      17.37972598      17.38596467      17.40147117      17.39554286      17.38011054      17.35002707      17.33300208      17.29035044      17.23512148      17.17048552      17.11571065      17.04681466      16.97557762      16.88306116      16.77211550      16.64071778      16.50948788      16.36284689
        16.21866601      16.08696429      15.98413994      15.89111685      15.80234555      15.71146946      15.63544586      15.56755287      15.50883382      15.45924207      15.42623985      15.40073452      15.38316904      15.36603423      15.35261811      15.33836410      15.32854705      15.31953337      15.31657846      15.31701481
        15.32984817      15.34271052      15.35314667      15.35407228      15.35804877      15.36006856      15.36317403      15.36055070      15.36163575      15.36309817      15.36675004      15.36519473      15.36649706      15.36372243      15.35867244      15.34487717      15.32868081      15.30847081      15.29011392      15.27468896
        15.26681804      15.26480844      15.26742632      15.26956087      15.27312390      15.27588795      15.27942935      15.28058880      15.28224079      15.28307172      15.28485326      15.28244898      15.27918920      15.27474226      15.27295234      15.26955610      15.26828678      15.26621190      15.26765963      15.26895916
        15.27262745      15.27539520      15.28113861      15.28503562      15.28956458      15.29205569      15.29585958      15.29673601      15.29700566      15.29610986      15.29663485      15.29659893      15.29667126      15.29579302      15.29597375      15.29516184      15.29358110      15.29023528      15.28804237      15.28657851
        17.70646292      17.70161329      17.71155232      17.71635604      17.71528758      17.69376198      17.67302873      17.62707752      17.57310444      17.50495414      17.43894029      17.35998490      17.28085441      17.18941631      17.09730321      17.00216078      16.89308677      16.76068891      16.62365553      16.47391489
        16.32126379      16.17832113      16.06241401      15.96822253      15.88071911      15.79668847      15.72214345      15.65736387      15.59650186      15.53915888      15.49266090      15.45845085      15.43379342      15.41569084      15.40349808      15.39731779      15.39182700      15.38581855      15.38398399      15.38864530
        15.39750554      15.40518750      15.41022015      15.41172397      15.41565380      15.41502842      15.41268932      15.41218078      15.41643767      15.42056808      15.42159035      15.41697948      15.41194430      15.40602932      15.39687780      15.38273790      15.36434693      15.34355391      15.32287142      15.30672929
        15.29816838      15.29591120      15.29727345      15.30123235      15.30556960      15.30866283      15.31026310      15.31325806      15.31816680      15.32219065      15.32334629      15.32158152      15.31817287      15.31303288      15.30793988      15.30339528      15.30104982      15.30113241      15.30118214      15.30208990
        15.30454206      15.30859381      15.31182291      15.31451556      15.31676524      15.31784707      15.31658685      15.31530181      15.31457528      15.31510534      15.31506569      15.31493980      15.31468743      15.31464116      15.31348459      15.31139391      15.30913069      15.30879652      15.30909702      15.30942590
        18.01380972      18.02179957      18.01498043      18.00720062      17.97854751      17.93702602      17.87857405      17.81729615      17.74447525      17.66838452      17.58613302      17.50590526      17.40945448      17.31175883      17.20580382      17.10444801      16.99128838      16.86150232      16.71533494      16.57013391
        16.41369227      16.26516109      16.13192494      16.03175004      15.94880044      15.87632379      15.80695333      15.74520071      15.67752538      15.61645591      15.56262252      15.52294374      15.49316944      15.47838246      15.47260223      15.47425303      15.47054098      15.46882434      15.46483251      15.46446945
        15.45911449      15.45919353      15.46163039      15.46657765      15.46501597      15.46352903      15.46110014      15.46311506      15.46263703      15.46222120      15.45914361      15.45593341      15.44750152      15.43881696      15.42854490      15.41755840      15.40037038      15.37869662      15.35480358      15.33866675
        15.33061029      15.33011227      15.33232621      15.33772893      15.34126371      15.34584921      15.35061313      15.35653293      15.35915976      15.36159353      15.36105545      15.36147164      15.35720448      15.35171738      15.34352527      15.34007472      15.33696310      15.33678422      15.33498651      15.33598784
        15.33607243      15.33798274      15.33750456      15.33786932      15.33689492      15.33666752      15.33523804      15.33443772      15.33289933      15.33230896      15.33123272      15.33079593      15.32946570      15.32827564      15.32691131      15.32739187      15.32866013      15.33058819      15.33295909      15.33727792
        18.30059644      18.29891967      18.27061068      18.22627659      18.16440736      18.09405105      18.01166559      17.93416897      17.85872321      17.78336800      17.69768870      17.61236086      17.51773952      17.41322583      17.30272619      17.19041815      17.06757826      16.93796765      16.80072453      16.65367586
        16.48900225      16.32786479      16.19649699      16.09476269      16.01371900      15.94527034      15.88516681      15.82653606      15.76314779      15.70045546      15.64882092      15.60721986      15.58115107      15.56668029      15.56039761      15.55733560      15.55263180      15.54661190      15.53550735      15.52438079
        15.51436134      15.51004982      15.50877506      15.50856001      15.50930436      15.50982272      15.50712259      15.50221032      15.49824607      15.49580373      15.49320246      15.48840192      15.48347921      15.47666821      15.46929904      15.45699334      15.44086635      15.41725789      15.39109444      15.37139380
        15.36656411      15.37026531      15.37560333      15.37811146      15.38275788      15.38885191      15.39527537      15.39812965      15.39861212      15.39982798      15.40176009      15.39986129      15.39440334      15.38851052      15.38364442      15.37902067      15.37537673      15.37286867      15.37145349      15.36945405
        15.36569663      15.36086806      15.35806347      15.35589281      15.35483349      15.35387986      15.35374363      15.35259326      15.35022171      15.34696099      15.34453860      15.34248331      15.34148729      15.34124939      15.34309257      15.34565347      15.34925639      15.35260085      15.35788425      15.36201204
        18.50142900      18.47786974      18.43334854      18.36529642      18.28408408      18.19079283      18.10043326      18.01314949      17.93702138      17.85978113      17.78307147      17.69896127      17.61037958      17.50308011      17.38921278      17.26561458      17.14157440      17.00525972      16.86711853      16.71010999
        16.54461220      16.38937454      16.26528423      16.16438427      16.08469096      16.01615433      15.96162805      15.90789881      15.85502753      15.79722323      15.74970848      15.70902154      15.68151525      15.65774600      15.64148278      15.62631392      15.61498512      15.60007498      15.58693273      15.57418756
        15.56741041      15.56018216      15.55725719      15.55512313      15.55649954      15.55321646      15.54801471      15.53988273      15.53614608      15.53134206      15.52868887      15.52581432      15.52662464      15.52383439      15.51720061      15.50238467      15.48399195      15.45738372      15.43080129      15.41061470
        15.41005651      15.41779847      15.42555969      15.42752941      15.43118197      15.43287421      15.43594443      15.43758923      15.44126357      15.44155839      15.44125930      15.43770911      15.43541031      15.43106040      15.42713600      15.41955375      15.41527250      15.41027487      15.40529917      15.39637670
        15.38929460      15.38181094      15.37668561      15.37286444      15.37119621      15.36970524      15.36848075      15.36602328      15.36336016      15.35962154      15.35627215      15.35417363      15.35436494      15.35683271      15.36042201      15.36393299      15.36889349      15.37472668      15.37975178      15.38200712
        18.60584627      18.57888314      18.52691232      18.45439686      18.36741921      18.26690056      18.16611816      18.07794788      17.99948012      17.92403419      17.84845750      17.77291104      17.69000755      17.58779853      17.47474749      17.35157139      17.21956931      17.07243260      16.91530119      16.75972271
        16.60465627      16.45373031      16.32852482      16.23450050      16.15694689      16.09208386      16.03687502      15.99137775      15.94548193      15.89935245      15.85410259      15.81215135      15.76828584      15.73207459      15.70437377      15.68266150      15.66361588      15.64959743      15.63921170      15.63077825
        15.62140939      15.61505478      15.61089616      15.60649570      15.59938230      15.59203025      15.58649112      15.58220034      15.57499688      15.56977003      15.56768515      15.57011500      15.56961174      15.56676900      15.56015977      15.55038810      15.53117532      15.50641813      15.48024523      15.46931713
        15.46988304      15.47619898      15.48118988      15.48481393      15.48365633      15.48168369      15.48100494      15.48306444      15.48397103      15.48347368      15.48127238      15.48056656      15.47880914      15.47418831      15.46659380      15.45884151      15.45045248      15.44102022      15.43068804      15.42035082
        15.40999387      15.40195805      15.39419884      15.38839077      15.38401205      15.38139846      15.37876758      15.37669323      15.37423401      15.37236021      15.37017440      15.37008609      15.37077863      15.37383628      15.37804596      15.38471344      15.39051976      15.39578142      15.39910567      15.40299427
        18.66930005      18.64554106      18.59472865      18.52541153      18.43686018      18.33673599      18.22830052      18.13456257      18.05634921      17.98659463      17.91239826      17.84070349      17.76212516      17.67319459      17.56356780      17.44502403      17.30036474      17.14511405      16.98180991      16.82037208
        16.65784269      16.51104023      16.39237389      16.30562386      16.22782060      16.16457130      16.11215155      16.07239935      16.03376788      15.99725192      15.95260326      15.90430356      15.85050741      15.80437171      15.76769390      15.74423930      15.72517781      15.71261886      15.70120135      15.69237996
        15.67882070      15.66846677      15.65694036      15.64710965      15.63615432      15.62929819      15.62266045      15.61901246      15.61394661      15.61169572      15.60948990      15.60893101      15.60638060      15.60656255      15.60430967      15.59973314      15.58676733      15.57030669      15.55001063      15.54025058
        15.53730745      15.53957601      15.54068748      15.54275557      15.54063824      15.53871445      15.53315390      15.52861499      15.52427592      15.52426510      15.52321070      15.52130586      15.51537417      15.50971276      15.50039311      15.48958373      15.47629059      15.46473006      15.45311810      15.44255191
        15.43037172      15.41940249      15.40968851      15.40194650      15.39517132      15.39101516      15.38885507      15.38799826      15.38741777      15.38714087      15.38764930      15.38914858      15.39110862      15.39430473      15.39959770      15.40659903      15.41264052      15.41728114      15.42078239      15.42319412
        18.71832086      18.69847808      18.65619440      18.59114092      18.50473650      18.40348326      18.29775643      18.19667009      18.11352804      18.04512472      17.98072977      17.91385744      17.84117467      17.75691959      17.65452345      17.53272768      17.38938671      17.22538094      17.05449926      16.88115612
        16.71569640      16.57156551      16.46020622      16.37010896      16.29769222      16.23452859      16.18786834      16.15118914      16.12307818      16.08644825      16.04414413      15.99313098      15.94085409      15.88844717      15.84709996      15.81588182      15.79791665      15.77987391      15.76144019      15.74347360
        15.72560268      15.70689464      15.69065638      15.67745868      15.66912452      15.66236689      15.65778584      15.65346644      15.65322430      15.65088408      15.64824228      15.64641613      15.65087391      15.65298029      15.65428312      15.64987846      15.64550411      15.63601280      15.62286059      15.60763327
        15.60232905      15.59999252      15.59837171      15.59432606      15.59251056      15.58835632      15.58187741      15.57245012      15.56681778      15.56245702      15.55926985      15.55385461      15.54689465      15.53779199      15.52727870      15.51333948      15.49935213      15.48585831      15.47408027      15.46095158
        15.44859274      15.43580095      15.42461032      15.41487543      15.40809123      15.40278627      15.40124727      15.40097922      15.40249507      15.40399093      15.40690852      15.40977071      15.41491156      15.41912129      15.42448992      15.42905465      15.43452399      15.43711017      15.43792545      15.43718380
        18.76240616      18.74583780      18.71315605      18.65771731      18.58267867      18.48467942      18.37704586      18.27091987      18.18091028      18.10521065      18.04758449      17.98876014      17.92384012      17.83852730      17.74103016      17.61846303      17.47446735      17.30143418      17.12492414      16.95123801
        16.79102612      16.63941414      16.52052848      16.43328992      16.36654298      16.30836880      16.26509133      16.23062948      16.20205941      16.16691185      16.12843079      16.08173254      16.03168906      15.97788724      15.93205793      15.89091857      15.86019609      15.83298126      15.80733971      15.78117919
        15.75841425      15.73700154      15.72187026      15.70982074      15.70259628      15.69835825      15.69836743      15.69625764      15.69263713      15.68916445      15.69186767      15.69541420      15.70001282      15.70105900      15.70421704      15.70368835      15.70040302      15.69031057      15.68055598      15.66924720
        15.66085064      15.65144467      15.64504948      15.63927421      15.63482919      15.62957874      15.62520539      15.61813752      15.60922296      15.59874333      15.59043654      15.58275527      15.57465279      15.56277052      15.55024553      15.53575381      15.52086180      15.50584130      15.49245909      15.47863974
        15.46532369      15.45256793      15.44109030      15.43062216      15.42317629      15.41828830      15.41544852      15.41584681      15.41860853      15.42250229      15.42673683      15.43274571      15.43863076      15.44375752      15.44684551      15.44916003      15.45025887      15.45042141      15.44994534      15.44913817
        18.80778329      18.79412441      18.76526867      18.72427200      18.66216654      18.57719336      18.46977827      18.36175237      18.26649914      18.18474227      18.11444227      18.06068048      18.00151465      17.92451793      17.82195505      17.69965557      17.55053379      17.37889099      17.20223363      17.02965328
        16.85956772      16.70894400      16.58384787      16.49831231      16.43194331      16.38181346      16.33915271      16.30600607      16.27286791      16.24129551      16.20254269      16.15980541      16.10774345      16.05378469      15.99996367      15.95251885      15.90874446      15.87456101      15.84520066      15.81878775
        15.79322165      15.77351664      15.75811088      15.74967769      15.74336105      15.74284766      15.74225271      15.74265047      15.73895560      15.73894222      15.73931089      15.74221618      15.74233225      15.74733602      15.75148035      15.75411694      15.74805417      15.74077668      15.73125169      15.72328483
        15.71030623      15.69914582      15.68911402      15.68368900      15.67618518      15.67075605      15.66524812      15.65950601      15.64835298      15.63540522      15.62131500      15.60951768      15.59748772      15.58567511      15.57157140      15.55667271      15.54003697      15.52481083      15.51001007      15.49664581
        15.48261122      15.47072743      15.45937468      15.45034066      15.44131692      15.43648996      15.43377309      15.43547878      15.43784483      15.44259877      15.44764388      15.45427459      15.45837666      15.46184949      15.46316829      15.46354170      15.46220612      15.46142383      15.46065510      15.46054707
        18.85587815      18.84435681      18.82029082      18.78818541      18.74110176      18.67360493      18.57678969      18.47023668      18.36677300      18.28087135      18.20285570      18.13939574      18.07943336      18.00893847      17.90596341      17.77933376      17.62651272      17.45694396      17.27434198      17.09953226
        16.92666264      16.77818866      16.65477834      16.56315550      16.49638803      16.44800720      16.40875618      16.37625845      16.34249949      16.30620056      16.26393790      16.21916720      16.16679570      16.11148462      16.05478978      16.00338415      15.95685977      15.91770664      15.88549659      15.86041738