# File generated by Flopy version 3.6.0 on 02/21/2024 at 09:06:27.
BEGIN options
END options

BEGIN timing
  TDIS6  Reference.tdis
END timing

BEGIN models
  gwf6  Reference.nam  Reference
END models

BEGIN exchanges
END exchanges

BEGIN solutiongroup  1
  ims6  Reference.ims  Reference
END solutiongroup  1

