# File generated by Flopy version 3.6.0 on 02/21/2024 at 09:06:28.
BEGIN options
END options

BEGIN griddata
  icelltype
    CONSTANT  0
  k
    INTERNAL  FACTOR  1.0
    5.78090890E-04  6.86566009E-04  8.09461634E-04  9.25083329E-04  9.99858895E-04       0.00101654  9.96788527E-04  9.86242826E-04       0.00102383       0.00112698       0.00128965       0.00148596       0.00168430       0.00186367       0.00201019       0.00209809       0.00208910       0.00196476       0.00175332       0.00150812
         0.00126419       0.00102571  7.89249169E-04  5.68419088E-04  3.88745754E-04  2.63693348E-04  1.86931339E-04  1.43360684E-04  1.19428544E-04  1.06093918E-04  9.82018205E-05  9.31046166E-05  8.91504380E-05  8.45901568E-05  7.77495313E-05  6.83550131E-05  5.81730312E-05  4.96712529E-05  4.42929759E-05  4.20672514E-05
    4.20886999E-05  4.30774510E-05  4.40204168E-05  4.47088976E-05  4.55953341E-05  4.70804440E-05  4.89953486E-05  5.07585897E-05  5.20773589E-05  5.34624332E-05  5.59329444E-05  6.02317413E-05  6.62677834E-05  7.32352528E-05  8.05363431E-05  8.87777769E-05  9.95673892E-05  1.13853989E-04  1.29691258E-04  1.41311986E-04
    1.42250737E-04  1.31049225E-04  1.12330856E-04  9.19771534E-05  7.33453767E-05  5.75043048E-05  4.47710846E-05  3.53072250E-05  2.89290919E-05  2.50120191E-05  2.26823965E-05  2.10988748E-05  1.97474728E-05  1.86083727E-05  1.79947298E-05  1.82020411E-05  1.92643671E-05  2.09014754E-05  2.26889395E-05  2.44440686E-05
    2.65058335E-05  2.96101678E-05  3.45599377E-05  4.20215349E-05  5.25863359E-05  6.71182460E-05  8.70480424E-05  1.13710867E-04  1.45962725E-04  1.77477828E-04  1.98726639E-04  2.05382047E-04  2.03325458E-04  2.03339119E-04  2.13928462E-04  2.39346988E-04  2.80678911E-04  3.37478806E-04  4.09331169E-04  4.95135697E-04
    5.64788914E-04  6.71203277E-04  7.98439790E-04  9.31058191E-04       0.00103437       0.00107641       0.00106192       0.00103343       0.00103827       0.00110380       0.00123282       0.00140681       0.00159631       0.00177689       0.00193242       0.00203924       0.00205790       0.00195879       0.00175817       0.00151111
         0.00126553       0.00103518  8.13530743E-04  6.02483949E-04  4.20942265E-04  2.86516690E-04  1.99848384E-04  1.49115994E-04  1.20919737E-04  1.05415141E-04  9.66433470E-05  9.14170156E-05  8.79052944E-05  8.43622529E-05  7.88396043E-05  7.03239732E-05  5.99628310E-05  5.03388563E-05  4.34677188E-05  3.98624393E-05
    3.89005141E-05  3.94269925E-05  4.03097787E-05  4.10023750E-05  4.16851148E-05  4.27635256E-05  4.42747436E-05  4.58058591E-05  4.70059243E-05  4.81715695E-05  5.02139988E-05  5.40235532E-05  5.98248740E-05  6.69857234E-05  7.45998913E-05  8.26133283E-05  9.22642760E-05  1.04979233E-04  1.20253628E-04  1.33956524E-04
    1.39595103E-04  1.33389343E-04  1.17713338E-04  9.82155457E-05  7.91918168E-05  6.24585931E-05  4.86355771E-05  3.80597322E-05  3.07439145E-05  2.62130945E-05  2.36433692E-05  2.21255550E-05  2.09539110E-05  1.98912596E-05  1.91684174E-05  1.91639002E-05  2.00698923E-05  2.17480685E-05  2.38048106E-05  2.59216376E-05
    2.82413924E-05  3.14088946E-05  3.62565809E-05  4.34882160E-05  5.36136694E-05  6.72520014E-05  8.56115432E-05  1.10323812E-04  1.41625265E-04  1.75234441E-04  2.01847686E-04  2.13810525E-04  2.13215337E-04  2.10216394E-04  2.14925318E-04  2.33202475E-04  2.67150013E-04  3.16889847E-04  3.82367861E-04  4.63605937E-04
    5.54322773E-04  6.56511847E-04  7.83164489E-04  9.26094282E-04       0.00105479       0.00112759       0.00112938       0.00109201       0.00106817       0.00109605       0.00118780       0.00133261       0.00150531       0.00168060       0.00184066       0.00196403       0.00201224       0.00194592       0.00176532       0.00152075
         0.00127096       0.00104277  8.32402315E-04  6.33059879E-04  4.54125484E-04  3.13106637E-04  2.16886760E-04  1.58249412E-04  1.24900405E-04  1.06474797E-04  9.62346937E-05  9.04061806E-05  8.69191433E-05  8.40612746E-05  7.97791564E-05  7.24209391E-05  6.23069775E-05  5.18321462E-05  4.35184953E-05  3.84470217E-05
    3.63255983E-05  3.61612839E-05  3.68093845E-05  3.74854507E-05  3.80748668E-05  3.88801700E-05  4.00574504E-05  4.13541583E-05  4.24167876E-05  4.33621650E-05  4.49521929E-05  4.81450498E-05  5.34555649E-05  6.05605821E-05  6.84986282E-05  7.66469660E-05  8.56445272E-05  9.69694232E-05  1.11138124E-04  1.25674369E-04
    1.34921386E-04  1.33692550E-04  1.21911089E-04  1.04179296E-04  8.53339991E-05  6.79826753E-05  5.31553741E-05  4.14119989E-05  3.30053772E-05  2.76672669E-05  2.46751871E-05  2.31082186E-05  2.21169551E-05  2.12259971E-05  2.04968197E-05  2.03213421E-05  2.10332032E-05  2.26582701E-05  2.48935705E-05  2.73514533E-05
    2.99851496E-05  3.33005922E-05  3.81291310E-05  4.52310512E-05  5.50809404E-05  6.80633103E-05  8.50525856E-05  1.07675285E-04  1.37126888E-04  1.71202231E-04  2.02041850E-04  2.20016729E-04  2.22923608E-04  2.18778719E-04  2.18689166E-04  2.30294492E-04  2.56899291E-04  2.99232699E-04  3.57512767E-04  4.32509867E-04
    5.47130688E-04  6.44051213E-04  7.66467457E-04  9.12919163E-04       0.00106074       0.00116551       0.00119340       0.00115839       0.00111256       0.00110477       0.00115771       0.00126856       0.00141756       0.00158055       0.00173902       0.00187395       0.00195016       0.00192175       0.00177108       0.00153644
         0.00128286       0.00105185  8.47667371E-04  6.59427153E-04  4.86585662E-04  3.42408612E-04  2.37811993E-04  1.70891414E-04  1.31586271E-04  1.09497968E-04  9.71982982E-05  9.02873811E-05  8.63821694E-05  8.37931735E-05  8.05117305E-05  7.44436856E-05  6.49976046E-05  5.40370444E-05  4.44099774E-05  3.78312958E-05
    3.44202586E-05  3.33725973E-05  3.35929922E-05  3.41617435E-05  3.47009826E-05  3.53406624E-05  3.62689252E-05  3.73635145E-05  3.83038179E-05  3.90644305E-05  4.02333364E-05  4.27588997E-05  4.73777611E-05  5.41262817E-05  6.22212507E-05  7.06908897E-05  7.94946216E-05  8.98004860E-05  1.02697953E-04  1.17133674E-04
    1.28766160E-04  1.31989658E-04  1.24579910E-04  1.09478585E-04  9.15020105E-05  7.39449389E-05  5.83153033E-05  4.54311478E-05  3.58195258E-05  2.94839358E-05  2.58644297E-05  2.40825105E-05  2.32071745E-05  2.25461136E-05  2.19251517E-05  2.16578469E-05  2.21763471E-05  2.36767976E-05  2.59916686E-05  2.87336216E-05
    3.17001228E-05  3.52264073E-05  4.01025865E-05  4.71530723E-05  5.68708096E-05  6.94484283E-05  8.53636097E-05  1.05993780E-04  1.33062864E-04  1.66154006E-04  1.99570811E-04  2.23340856E-04  2.31385310E-04  2.28212660E-04  2.24808119E-04  2.30527089E-04  2.50128325E-04  2.85066158E-04  3.35774401E-04  4.03401081E-04
    5.43147697E-04  6.34711105E-04  7.50740819E-04  8.94927192E-04       0.00105397       0.00118742       0.00124809       0.00122757       0.00116918       0.00112990       0.00114432       0.00121849       0.00133853       0.00148279       0.00163298       0.00177266       0.00187184       0.00188270       0.00177079       0.00155588
         0.00130224       0.00106541  8.61894771E-04  6.81932523E-04  5.16953404E-04  3.73109112E-04  2.62114627E-04  1.87055763E-04  1.41159387E-04  1.14694040E-04  9.97439900E-05  9.12727452E-05  8.65054129E-05  8.37246959E-05  8.10664894E-05  7.62366814E-05  6.78026957E-05  5.67931767E-05  4.60787412E-05  3.80051951E-05
    3.32123697E-05  3.11298380E-05  3.07413875E-05  3.10706263E-05  3.15392021E-05  3.20787169E-05  3.28358738E-05  3.37758113E-05  3.46286175E-05  3.52637419E-05  3.60859737E-05  3.79678181E-05  4.17810735E-05  4.78953831E-05  5.58608893E-05  6.46362343E-05  7.35889355E-05  8.33242503E-05  9.50745731E-05  1.08846303E-04
    1.21740409E-04  1.28545605E-04  1.25543525E-04  1.13750805E-04  9.73702956E-05  8.01339515E-05  6.40294635E-05  5.01412149E-05  3.92779634E-05  3.17765687E-05  2.73156483E-05  2.51158150E-05  2.42268581E-05  2.37941767E-05  2.33826969E-05  2.31320009E-05  2.34997579E-05  2.48373227E-05  2.71415322E-05  3.00880864E-05
    3.33707939E-05  3.71438283E-05  4.21132664E-05  4.91611937E-05  5.88530705E-05  7.12627619E-05  8.64589771E-05  1.05380755E-04  1.29889298E-04  1.60907277E-04  1.95095079E-04  2.23583301E-04  2.37651345E-04  2.37542670E-04  2.32665709E-04  2.33616846E-04  2.46818365E-04  2.74662260E-04  3.17821415E-04  3.77521744E-04
    5.41886127E-04  6.28697065E-04  7.37635169E-04  8.75451438E-04       0.00103777       0.00119300       0.00128852       0.00129361       0.00123434       0.00117029       0.00114831       0.00118484       0.00127251       0.00139288       0.00152851       0.00166538       0.00177986       0.00182695       0.00175966       0.00157527
         0.00132856       0.00108559  8.77906279E-04  7.01909043E-04  5.44519225E-04  4.03835841E-04  2.88990108E-04  2.06573901E-04  1.53735381E-04  1.22248786E-04  1.04066276E-04  9.35632863E-05  8.75036209E-05  8.40624963E-05  8.15564217E-05  7.77216605E-05  7.04948197E-05  5.98931427E-05  4.84233374E-05  3.89389505E-05
    3.27077161E-05  2.94745885E-05  2.83242371E-05  2.82696480E-05  2.85989519E-05  2.90567933E-05  2.96982893E-05  3.05295892E-05  3.13351701E-05  3.19137022E-05  3.24904530E-05  3.38112066E-05  3.67976475E-05  4.20781275E-05  4.95901480E-05  5.84774731E-05  6.77423389E-05  7.73292942E-05  8.82409908E-05  1.01129269E-04
    1.14410888E-04  1.23788543E-04  1.24825603E-04  1.16726198E-04  1.02601870E-04  8.62721622E-05  7.01313026E-05  5.55032435E-05  4.34418740E-05  3.46534841E-05  2.91436330E-05  2.63012745E-05  2.52147152E-05  2.49368979E-05  2.47943477E-05  2.46792013E-05  2.49781667E-05  2.61548029E-05  2.83812925E-05  3.14472088E-05
    3.50027649E-05  3.90320234E-05  4.41181490E-05  5.11797411E-05  6.09009538E-05  7.33348082E-05  8.81856196E-05  1.05820814E-04  1.27897425E-04  1.56188950E-04  1.89510020E-04  2.21049928E-04  2.41090772E-04  2.45754838E-04  2.41462871E-04  2.39102313E-04  2.46766721E-04  2.68053088E-04  3.04000101E-04  3.55730483E-04
    5.42549098E-04  6.25593542E-04  7.27933899E-04  8.57195409E-04       0.00101613       0.00118432       0.00131177       0.00135045       0.00130309       0.00122359       0.00116934       0.00116883       0.00122235       0.00131523       0.00143117       0.00155811       0.00167883       0.00175510       0.00173383       0.00158979
         0.00135967       0.00111340  8.98288921E-04  7.21383107E-04  5.69412567E-04  4.33433898E-04  3.17400985E-04  2.29039621E-04  1.69314020E-04  1.32303002E-04  1.10336855E-04  9.73425500E-05  8.95820628E-05  8.50305927E-05  8.21621834E-05  7.89158737E-05  7.28894774E-05  6.30955966E-05  5.12942405E-05  4.05775145E-05
    3.28950286E-05  2.84243774E-05  2.63902030E-05  2.58172042E-05  2.59119331E-05  2.62649529E-05  2.68161403E-05  2.75712966E-05  2.83631558E-05  2.89501819E-05  2.93926665E-05  3.02738653E-05  3.24916146E-05  3.68415449E-05  4.36164832E-05  5.23101425E-05  6.18503431E-05  7.15974038E-05  8.20571749E-05  9.41130477E-05
    1.07218387E-04  1.18210959E-04  1.22633663E-04  1.18277410E-04  1.06903410E-04  9.20484014E-05  7.63775433E-05  6.13979933E-05  4.83214134E-05  3.82050451E-05  3.14651941E-05  2.77493898E-05  2.62435969E-05  2.59766930E-05  2.60966792E-05  2.62191919E-05  2.65594775E-05  2.76195806E-05  2.97351290E-05  3.28455979E-05
    3.66172409E-05  4.08922387E-05  4.61006434E-05  5.31628356E-05  6.29108640E-05  7.54876133E-05  9.03385304E-05  1.07195265E-04  1.27215887E-04  1.52554496E-04  1.83757791E-04  2.16467466E-04  2.41538624E-04  2.51971828E-04  2.50283007E-04  2.46355177E-04  2.49610325E-04  2.65078599E-04  2.94385202E-04  3.38507434E-04
    5.44175500E-04  6.24483963E-04  7.21560662E-04  8.41898287E-04  9.92848284E-04       0.00116509       0.00131751       0.00139301       0.00136957       0.00128620       0.00120607       0.00117068       0.00118967       0.00125294       0.00134554       0.00145665       0.00157461       0.00167022       0.00169132       0.00159443
         0.00139195       0.00114849  9.24996630E-04  7.42673602E-04  5.92580733E-04  4.61234592E-04  3.46233014E-04  2.53795108E-04  1.87724698E-04  1.44917137E-04  1.18688095E-04  1.02767734E-04  9.29259892E-05  8.68503209E-05  8.31069097E-05  7.99317584E-05  7.48825189E-05  6.61551151E-05  5.44908942E-05  4.28302588E-05
    3.37463988E-05  2.79785678E-05  2.49652180E-05  2.37599267E-05  2.35184748E-05  2.37143729E-05  2.41706858E-05  2.48622292E-05  2.56584944E-05  2.63041196E-05  2.67184817E-05  2.73007140E-05  2.88645694E-05  3.22866990E-05  3.81335562E-05  4.63020362E-05  5.59093001E-05  6.59524058E-05  7.63264192E-05  8.77780570E-05
    1.00442233E-04  1.12275130E-04  1.19302174E-04  1.18436864E-04  1.10076641E-04  9.71651976E-05  8.24713200E-05  6.76189053E-05  5.38531169E-05  4.24854618E-05  3.43891206E-05  2.95790933E-05  2.74128390E-05  2.69560331E-05  2.72545079E-05  2.76699094E-05  2.81685751E-05  2.91941891E-05  3.12053859E-05  3.43093095E-05
    3.82416457E-05  4.27427349E-05  4.80706280E-05  5.51018402E-05  6.48210485E-05  7.75665423E-05  9.26850360E-05  1.09298666E-04  1.27825782E-04  1.50359280E-04  1.78674458E-04  2.10807639E-04  2.39331637E-04  2.55634075E-04  2.58209199E-04  2.54611869E-04  2.54841183E-04  2.65423029E-04  2.88837575E-04  3.26006835E-04
    5.45812195E-04  6.24123687E-04  7.17680786E-04  8.30214193E-04  9.70921181E-04       0.00113978       0.00130791       0.00141824       0.00142781       0.00135338       0.00125617       0.00118974       0.00117504       0.00120784       0.00127490       0.00136595       0.00147336       0.00157738       0.00163266       0.00158500
         0.00142068       0.00118901  9.59042004E-04  7.67986194E-04  6.15586257E-04  4.87224193E-04  3.74516439E-04  2.79985556E-04  2.08587302E-04  1.60027423E-04  1.29185991E-04  1.09954505E-04  9.76894225E-05  8.97238330E-05  8.46287878E-05  8.09585012E-05  7.64740089E-05  6.88645395E-05  5.77732977E-05  4.55604947E-05
    3.52120560E-05  2.81227263E-05  2.40560740E-05  2.21267959E-05  2.14555186E-05  2.14277913E-05  2.17611231E-05  2.23809519E-05  2.31803414E-05  2.39119502E-05  2.43866276E-05  2.48123608E-05  2.58703192E-05  2.84458039E-05  3.32841973E-05  4.06476222E-05  5.00109638E-05  6.02964204E-05  7.08476313E-05  8.20030785E-05
    9.42037562E-05  1.06346101E-04  1.15215715E-04  1.17377057E-04  1.12050293E-04  1.01389732E-04  8.81042592E-05  7.38835825E-05  5.98819560E-05  4.74892820E-05  3.80019802E-05  3.19085413E-05  2.88381003E-05  2.79537298E-05  2.82727346E-05  2.89654318E-05  2.97175709E-05  3.08144039E-05  3.27674932E-05  3.58462624E-05
    3.98984625E-05  4.46092627E-05  5.00582075E-05  5.70252000E-05  6.66237485E-05  7.94681148E-05  9.49992148E-05  1.11862533E-04  1.29579665E-04  1.49763822E-04  1.74900555E-04  2.05089099E-04  2.35219742E-04  2.56625670E-04  2.64478351E-04  2.63041536E-04  2.61826720E-04  2.68639237E-04  2.87052072E-04  3.18124945E-04
    5.46696034E-04  6.23164762E-04  7.14880674E-04  8.21749971E-04  9.52150036E-04       0.00111254       0.00128692       0.00142569       0.00147281       0.00141960       0.00131620       0.00122453       0.00117823       0.00118071       0.00122123       0.00128964       0.00138063       0.00148273       0.00156098       0.00155915
         0.00144076       0.00123167       0.00100026  7.99058765E-04  6.40296526E-04  5.12056357E-04  4.01647095E-04  3.06689041E-04  2.31313020E-04  1.77406240E-04  1.41795660E-04  1.18953880E-04  1.03979666E-04  9.38191696E-05  8.69562139E-05  8.22319438E-05  7.77700443E-05  7.10978833E-05  6.08917650E-05  4.85818216E-05
    3.72110258E-05  2.88289176E-05  2.36555621E-05  2.09292277E-05  1.97489411E-05  1.94297688E-05  1.95981189E-05  2.01216126E-05  2.09041802E-05  2.17230833E-05  2.23192328E-05  2.27186049E-05  2.34320263E-05  2.52937336E-05  2.91435337E-05  3.55216104E-05  4.43127033E-05  5.46268828E-05  6.54602187E-05  7.66157989E-05
    8.84946858E-05  1.00660199E-04  1.10735905E-04  1.15362038E-04  1.12882723E-04  1.04593460E-04  9.30091796E-05  7.98682445E-05  6.61578827E-05  5.31264325E-05  4.23478657E-05  3.48440525E-05  3.06409280E-05  2.90752743E-05  2.91996622E-05  3.00732240E-05  3.11220889E-05  3.23961843E-05  3.43689691E-05  3.74393963E-05
    4.15945127E-05  4.65130772E-05  5.21022970E-05  5.89901723E-05  6.83667900E-05  8.11621013E-05  9.71025724E-05  1.14590979E-04  1.32224055E-04  1.50753766E-04  1.72850983E-04  2.00218203E-04  2.30192720E-04  2.55297636E-04  2.68632094E-04  2.70853236E-04  2.69850220E-04  2.74169508E-04  2.88591234E-04  3.14560416E-04
    5.46412911E-04  6.20416086E-04  7.11425912E-04  8.15219111E-04  9.37040076E-04       0.00108659       0.00125919       0.00141741       0.00150145       0.00147926       0.00138178       0.00127274       0.00119826       0.00117150       0.00118544       0.00123004       0.00130080       0.00139242       0.00148142       0.00151706
         0.00144775       0.00127200       0.00104712  8.36864195E-04  6.68546052E-04  5.36911881E-04  4.27532578E-04  3.33096223E-04  2.55163175E-04  1.96644868E-04  1.56348098E-04  1.29723348E-04  1.11835569E-04  9.92534349E-05  9.02865945E-05  8.40012944E-05  7.89624351E-05  7.28388871E-05  6.36307113E-05  5.16685970E-05
    3.96218166E-05  3.00513240E-05  2.37460204E-05  2.01646352E-05  1.84109235E-05  1.77392785E-05  1.76963621E-05  1.80892618E-05  1.88211318E-05  1.97040471E-05  2.04498886E-05  2.09290576E-05  2.14572366E-05  2.27657738E-05  2.57214929E-05  3.10461777E-05  3.89935266E-05  4.90297091E-05  6.00768224E-05  7.14404111E-05
    8.32176831E-05  9.53248088E-05  1.06148987E-04  1.12686800E-04  1.12735606E-04  1.06767960E-04  9.70086119E-05  8.52612755E-05  7.23562458E-05  5.92044820E-05  4.74026641E-05  3.84646677E-05  3.29383633E-05  3.04406792E-05  3.01213119E-05  3.10051510E-05  3.23203749E-05  3.38491031E-05  3.59339326E-05  3.90439955E-05
    4.33126834E-05  4.84588396E-05  5.42361918E-05  6.10680390E-05  7.01437376E-05  8.26998908E-05  9.89017594E-05  1.17208878E-04  1.35430822E-04  1.53163578E-04  1.72722598E-04  1.96896643E-04  2.25288189E-04  2.52382058E-04  2.70614529E-04  2.77425272E-04  2.78180892E-04  2.81375625E-04  2.92910640E-04  3.14858100E-04
    5.44995317E-04  6.15096667E-04  7.05591577E-04  8.08699701E-04  9.24874736E-04       0.00106373       0.00122908       0.00139723       0.00151304       0.00152760       0.00144791       0.00133118       0.00123355       0.00117952       0.00116759       0.00118830       0.00123685       0.00131182       0.00140015       0.00146156
         0.00143887       0.00130501       0.00109672  8.81357939E-04  7.01820621E-04  5.63256421E-04  4.52614865E-04  3.58686734E-04  2.79365100E-04  2.17176175E-04  1.72521786E-04  1.42099348E-04  1.21201124E-04  1.06071352E-04  9.47665636E-05  8.64987386E-05  8.02938696E-05  7.41847634E-05  6.58539296E-05  5.45841510E-05
    4.22793766E-05  3.17186691E-05  2.42995151E-05  1.98206138E-05  1.74412557E-05  1.63659045E-05  1.60682206E-05  1.62938482E-05  1.69342221E-05  1.78391137E-05  1.87291393E-05  1.93612631E-05  1.98491525E-05  2.07748635E-05  2.29775270E-05  2.72785081E-05  3.42111319E-05  4.36505590E-05  5.46979846E-05  6.63385234E-05
    7.82305284E-05  9.03396777E-05  1.01640256E-04  1.09621796E-04  1.11828606E-04  1.08012694E-04  1.00043695E-04  8.98224058E-05  7.81250517E-05  6.54300699E-05  5.30479967E-05  4.28005429E-05  3.58309290E-05  3.21724333E-05  3.11495009E-05  3.18187434E-05  3.32898187E-05  3.50945975E-05  3.73739875E-05  4.05905402E-05
    4.50079101E-05  5.04247213E-05  5.64726165E-05  6.33255249E-05  7.20749333E-05  8.42062933E-05  1.00412209E-04  1.19515751E-04  1.38843272E-04  1.56703488E-04  1.74517204E-04  1.95590515E-04  2.21437828E-04  2.48833937E-04  2.70782012E-04  2.82422382E-04  2.86170331E-04  2.89589186E-04  2.99387519E-04  3.18440014E-04
    5.42931038E-04  6.07020966E-04  6.96025952E-04  7.99998033E-04  9.13934134E-04       0.00104431       0.00119986       0.00136972       0.00150926       0.00156151       0.00150955       0.00139594       0.00128183       0.00120355       0.00116710       0.00116463       0.00119047       0.00124497       0.00132329       0.00139756
         0.00141377       0.00132611       0.00114495  9.31280286E-04  7.40975613E-04  5.92558125E-04  4.77766684E-04  3.83343376E-04  3.03258806E-04  2.38344773E-04  1.89853657E-04  1.55782519E-04  1.31900772E-04  1.14219586E-04  1.00470302E-04  8.99135150E-05  8.20189756E-05  7.53245317E-05  6.75352651E-05  5.71227626E-05
    4.49846865E-05  3.37269961E-05  2.52744456E-05  1.98775739E-05  1.68305500E-05  1.53094867E-05  1.47198535E-05  1.47446676E-05  1.52529536E-05  1.61276629E-05  1.71270980E-05  1.79468940E-05  1.85145626E-05  1.92247949E-05  2.08390524E-05  2.42162814E-05  3.00729902E-05  3.86540327E-05  4.94050543E-05  6.12385951E-05
    7.33887801E-05  8.56301922E-05  9.72929776E-05  1.06374219E-04  1.10389256E-04  1.08500068E-04  1.02174421E-04  9.34288557E-05  8.31506856E-05  7.14395251E-05  5.90553781E-05  4.78063939E-05  3.93864723E-05  3.43840048E-05  3.24077135E-05  3.26089712E-05  3.40555388E-05  3.60847802E-05  3.86046871E-05  4.19939523E-05
    4.66090044E-05  5.23569261E-05  5.87907292E-05  6.58052178E-05  7.42833913E-05  8.58571895E-05  1.01760005E-04  1.21432164E-04  1.42137152E-04  1.60996325E-04  1.78067487E-04  1.96537644E-04  2.19377222E-04  2.45658411E-04  2.69824036E-04  2.85863273E-04  2.93356803E-04  2.98184867E-04  3.07364276E-04  3.24635350E-04
    5.41080748E-04  5.96661532E-04  6.82070145E-04  7.87098045E-04  9.01845002E-04       0.00102733       0.00117328       0.00133911       0.00149348       0.00158001       0.00156233       0.00146264       0.00134018       0.00124184       0.00118287       0.00115853       0.00116228       0.00119453       0.00125613       0.00133109
         0.00137477       0.00133214       0.00118705  9.84072900E-04  7.85986482E-04  6.26008374E-04  5.04097090E-04  4.07366433E-04  3.26429968E-04  2.59514288E-04  2.07787871E-04  1.70348255E-04  1.43627211E-04  1.23522124E-04  1.07374462E-04  9.43683159E-05  8.43689858E-05  7.65006109E-05  6.87632337E-05  5.91531769E-05
    4.75299789E-05  3.59379040E-05  2.66099441E-05  2.03087485E-05  1.65633814E-05  1.45620199E-05  1.36500639E-05  1.34465778E-05  1.37878109E-05  1.45791998E-05  1.56329063E-05  1.66361561E-05  1.73696777E-05  1.80188392E-05  1.92174573E-05  2.18133489E-05  2.66266738E-05  3.41847192E-05  4.43336486E-05  5.61486027E-05
    6.85825629E-05  8.10855040E-05  9.31053412E-05  1.03070140E-04  1.08610696E-04  1.08429532E-04  1.03552524E-04  9.60930072E-05  8.72229103E-05  7.68593156E-05  6.50940836E-05  5.33363404E-05  4.36183797E-05  3.71672652E-05  3.40176872E-05  3.34940477E-05  3.46884210E-05  3.68162293E-05  3.95644322E-05  4.31687608E-05
    4.80273312E-05  5.41706862E-05  6.11276126E-05  6.85074192E-05  7.68692343E-05  8.78488588E-05  1.03161589E-04  1.23024424E-04  1.45087406E-04  1.65631509E-04  1.83065524E-04  1.99769856E-04  2.19613491E-04  2.43771674E-04  2.68627313E-04  2.88116152E-04  2.99548989E-04  3.06667315E-04  3.16212432E-04  3.32723398E-04
    5.40528324E-04  5.85069071E-04  6.63940849E-04  7.68626007E-04  8.86058373E-04       0.00101070       0.00114955       0.00130856       0.00146981       0.00158421       0.00160326       0.00152691       0.00140518       0.00129217       0.00121340       0.00116899       0.00115203       0.00116189       0.00120262       0.00126822
         0.00132636       0.00132222       0.00121843       0.00103601  8.35748222E-04  6.64263228E-04  5.32714296E-04  4.31385960E-04  3.48785138E-04  2.80183296E-04  2.25757869E-04  1.85290158E-04  1.55953871E-04  1.33667123E-04  1.15332681E-04  9.98950554E-05  8.75223909E-05  7.79658424E-05  6.97187951E-05  6.06479724E-05
    4.97357872E-05  3.81872010E-05  2.82209297E-05  2.10776723E-05  1.66200059E-05  1.41102999E-05  1.28512630E-05  1.23984724E-05  1.25460879E-05  1.32074845E-05  1.42512084E-05  1.53999803E-05  1.63449264E-05  1.70650771E-05  1.80190518E-05  1.99973965E-05  2.38663641E-05  3.03415290E-05  3.96367996E-05  5.11490846E-05
    6.37625336E-05  7.65962132E-05  8.90185376E-05  9.97559475E-05  1.06624820E-04  1.07983443E-04  1.04377074E-04  9.79467668E-05  9.02769109E-05  8.13827154E-05  7.07724392E-05  5.91320376E-05  4.84600701E-05  4.05764646E-05  3.60872453E-05  3.45997522E-05  3.52939698E-05  3.73343291E-05  4.02307991E-05  4.40476307E-05
    4.91719993E-05  5.57592195E-05  6.33769654E-05  7.13758618E-05  7.98850865E-05  9.03649131E-05  1.04887879E-04  1.24499662E-04  1.47623911E-04  1.70236803E-04  1.89101869E-04  2.05137399E-04  2.22428524E-04  2.43916625E-04  2.68129347E-04  2.89826299E-04  3.04863193E-04  3.14751788E-04  3.25411979E-04  3.41998246E-04
    5.42400920E-04  5.73677482E-04  6.42713564E-04  7.44212346E-04  8.64413755E-04  9.91720105E-04       0.00112740       0.00127971       0.00144208       0.00157674       0.00163111       0.00158495       0.00147310       0.00135184       0.00125675       0.00119451       0.00115885       0.00114740       0.00116536       0.00121423
         0.00127430       0.00129807       0.00123572       0.00108266  8.87982249E-04  7.07213647E-04  5.64483469E-04  4.56199429E-04  3.70544794E-04  3.00073480E-04  2.43282241E-04  2.00093043E-04  1.68379681E-04  1.44218086E-04  1.24058464E-04  1.06409735E-04  9.15797122E-05  7.99451458E-05  7.06355985E-05  6.16877156E-05
    5.14888738E-05  4.03059925E-05  2.99976481E-05  2.21343403E-05  1.69761469E-05  1.39380617E-05  1.23114738E-05  1.15936962E-05  1.15297568E-05  1.20253396E-05  1.29965518E-05  1.42294193E-05  1.53889567E-05  1.62802616E-05  1.71511914E-05  1.86841580E-05  2.17479411E-05  2.71695218E-05  3.54501482E-05  4.63691563E-05
    5.89502911E-05  7.20866849E-05  8.49499961E-05  9.64146527E-05  1.04492991E-04  1.07294019E-04  1.04846208E-04  9.91998661E-05  9.23980935E-05  8.48378587E-05  7.57099520E-05  6.48380803E-05  5.37429881E-05  4.46076953E-05  3.86978287E-05  3.60452996E-05  3.59962384E-05  3.77270988E-05  4.06292930E-05  4.45987560E-05
    4.99691501E-05  5.70106724E-05  6.53975238E-05  7.42904181E-05  8.33140529E-05  9.35443387E-05  1.07222096E-04  1.26173684E-04  1.49859071E-04  1.74557310E-04  1.95724190E-04  2.12335656E-04  2.27895883E-04  2.46627868E-04  2.69198916E-04  2.91802549E-04  3.09702833E-04  3.22415633E-04  3.34630440E-04  3.51853289E-04
    5.47690914E-04  5.64054953E-04  6.20111495E-04  7.14630856E-04  8.35681958E-04  9.67639715E-04       0.00110451       0.00125257       0.00141312       0.00156094       0.00164635       0.00163404       0.00154034       0.00141787       0.00131062       0.00123321       0.00118131       0.00115057       0.00114568       0.00117314
         0.00122453       0.00126365       0.00123761       0.00111964  9.39345147E-04  7.53807973E-04  5.99801054E-04  4.82572992E-04  3.92157475E-04  3.19161042E-04  2.60045729E-04  2.14318899E-04  1.80403010E-04  1.54658756E-04  1.33129568E-04  1.13691546E-04  9.65397675E-05  8.26049707E-05  7.17558610E-05  6.24393353E-05
    5.27672907E-05  4.21507269E-05  3.18131536E-05  2.34122142E-05  1.76011427E-05  1.40268999E-05  1.20163327E-05  1.10216028E-05  1.07353096E-05  1.10412505E-05  1.18872189E-05  1.31321267E-05  1.44712317E-05  1.55935991E-05  1.65253673E-05  1.77862040E-05  2.02050840E-05  2.46661063E-05  3.18690766E-05  4.19538112E-05
    5.42312378E-05  6.75369008E-05  8.08263898E-05  9.29919191E-05  1.02212820E-04  1.06425932E-04  1.05116324E-04  1.00086555E-04  9.37901503E-05  8.72225642E-05  7.96213153E-05  7.00528876E-05  5.91904395E-05  4.91763293E-05  4.18896023E-05  3.79312507E-05  3.69214785E-05  3.81111971E-05  4.08318515E-05  4.48370607E-05
    5.03808463E-05  5.78306481E-05  6.70324068E-05  7.70707686E-05  8.70526499E-05  9.74514908E-05  1.10418342E-04  1.28422234E-04  1.52078756E-04  1.78522123E-04  2.02517167E-04  2.20943388E-04  2.35899727E-04  2.52227107E-04  2.72559219E-04  2.94897312E-04  3.14688537E-04  3.29904856E-04  3.43780549E-04  3.61870938E-04
    5.57094969E-04  5.57664829E-04  5.98174720E-04  6.81659935E-04  7.99930745E-04  9.36334673E-04       0.00107802       0.00122572       0.00138429       0.00153994       0.00165071       0.00167280       0.00160378       0.00148722       0.00137247       0.00128284       0.00121747       0.00117023       0.00114384       0.00114764
         0.00118235       0.00122431       0.00122526       0.00114357  9.85825462E-04  8.01981977E-04  6.38401932E-04  5.11039312E-04  4.14159390E-04  3.37641637E-04  2.75939234E-04  2.27680690E-04  1.91608334E-04  1.64470355E-04  1.42026047E-04  1.21377259E-04  1.02277939E-04  8.60289371E-05  7.32918718E-05  6.31179927E-05
    5.36431688E-05  4.36332193E-05  3.35397889E-05  2.48287333E-05  1.84554722E-05  1.43558489E-05  1.19503858E-05  1.06693708E-05  1.01549445E-05  1.02581035E-05  1.09400467E-05  1.21266597E-05  1.35822318E-05  1.49508067E-05  1.60594360E-05  1.72169458E-05  1.91615720E-05  2.27946276E-05  2.89412801E-05  3.80332640E-05
    4.97328273E-05  6.29897380E-05  7.66110166E-05  8.94264613E-05  9.97375701E-05  1.05375219E-04  1.05275338E-04  1.00815135E-04  9.47199012E-05  8.86944450E-05  8.23829784E-05  7.44087115E-05  6.44404403E-05  5.40999819E-05  4.56434963E-05  4.03279669E-05  3.81843055E-05  3.86148696E-05  4.09460453E-05  4.48257457E-05
    5.04182073E-05  5.81652745E-05  6.81376420E-05  7.94947227E-05  9.09031914E-05  1.02048223E-04  1.14663053E-04  1.31627855E-04  1.54700958E-04  1.82278548E-04  2.09192856E-04  2.30483138E-04  2.46156889E-04  2.60830526E-04  2.78749207E-04  2.99906538E-04  3.20561105E-04  3.37694090E-04  3.53039079E-04  3.71894654E-04
    5.70869154E-04  5.55674698E-04  5.78915256E-04  6.47714439E-04  7.58579563E-04  8.96878899E-04       0.00104516       0.00119673       0.00135542       0.00151597       0.00164652       0.00170111       0.00166115       0.00155707       0.00143969       0.00134091       0.00126494       0.00120452       0.00115924       0.00113911