# File generated by Flopy version 3.6.0 on 02/21/2024 at 09:06:28.
BEGIN options
END options

BEGIN dimensions
  MAXBOUND  5000
END dimensions

BEGIN period  1
  1 1 2.76869345E-08
  1 2 2.75015144E-08
  1 3 2.73166348E-08
  1 4 2.71390651E-08
  1 5 2.69719370E-08
  1 6 2.68144675E-08
  1 7 2.66621964E-08
  1 8 2.65077026E-08
  1 9 2.63417067E-08
  1 10 2.61544201E-08
  1 11 2.59369726E-08
  1 12 2.56827418E-08
  1 13 2.53884232E-08
  1 14 2.50547108E-08
  1 15 2.46865111E-08
  1 16 2.42926654E-08
  1 17 2.38852187E-08
  1 18 2.34783250E-08
  1 19 2.30869192E-08
  1 20 2.27253102E-08
  1 21 2.24058559E-08
  1 22 2.21378629E-08
  1 23 2.19268262E-08
  1 24 2.17740774E-08
  1 25 2.16768615E-08
  1 26 2.16288126E-08
  1 27 2.16207526E-08
  1 28 2.16417090E-08
  1 29 2.16800256E-08
  1 30 2.17244415E-08
  1 31 2.17650256E-08
  1 32 2.17938814E-08
  1 33 2.18055704E-08
  1 34 2.17972402E-08
  1 35 2.17684793E-08
  1 36 2.17209511E-08
  1 37 2.16578776E-08
  1 38 2.15834524E-08
  1 39 2.15022602E-08
  1 40 2.14187644E-08
  1 41 2.13369071E-08
  1 42 2.12598416E-08
  1 43 2.11897928E-08
  1 44 2.11280268E-08
  1 45 2.10748954E-08
  1 46 2.10299187E-08
  1 47 2.09918756E-08
  1 48 2.09588773E-08
  1 49 2.09284191E-08
  1 50 2.08974151E-08
  1 51 2.08622368E-08
  1 52 2.08187814E-08
  1 53 2.07625963E-08
  1 54 2.06890804E-08
  1 55 2.05937672E-08
  1 56 2.04726801E-08
  1 57 2.03227278E-08
  1 58 2.01420965E-08
  1 59 1.99305801E-08
  1 60 1.96897894E-08
  1 61 1.94231906E-08
  1 62 1.91359351E-08
  1 63 1.88344734E-08
  1 64 1.85259697E-08
  1 65 1.82175687E-08
  1 66 1.79155893E-08
  1 67 1.76247406E-08
  1 68 1.73474609E-08
  1 69 1.70834761E-08
  1 70 1.68296516E-08
  1 71 1.65801822E-08
  1 72 1.63271232E-08
  1 73 1.60612229E-08
  1 74 1.57729748E-08
  1 75 1.54537761E-08
  1 76 1.50970580E-08
  1 77 1.46992472E-08
  1 78 1.42604359E-08
  1 79 1.37846638E-08
  1 80 1.32797607E-08
  1 81 1.27567519E-08
  1 82 1.22288797E-08
  1 83 1.17103465E-08
  1 84 1.12149216E-08
  1 85 1.07545743E-08
  1 86 1.03382983E-08
  1 87 9.97127429E-09
  1 88 9.65447582E-09
  1 89 9.38477629E-09
  1 90 9.15555041E-09
  1 91 8.95770467E-09
  1 92 8.78101658E-09
  1 93 8.61562252E-09
  1 94 8.45347306E-09
  1 95 8.28957603E-09
  1 96 8.12287077E-09
  1 97 7.95662030E-09
  1 98 7.79826539E-09
  1 99 7.65874921E-09
  1 100 7.55138581E-09
  1 101 2.77596664E-08
  1 102 2.75771413E-08
  1 103 2.74032405E-08
  1 104 2.72338869E-08
  1 105 2.70621432E-08
  1 106 2.68792843E-08
  1 107 2.66760975E-08
  1 108 2.64442441E-08
  1 109 2.61775157E-08
  1 110 2.58728319E-08
  1 111 2.55308636E-08
  1 112 2.51562102E-08
  1 113 2.47571187E-08
  1 114 2.43447837E-08
  1 115 2.39323189E-08
  1 116 2.35335259E-08
  1 117 2.31616040E-08
  1 118 2.28279495E-08
  1 119 2.25411714E-08
  1 120 2.23064253E-08
  1 121 2.21251188E-08
  1 122 2.19950021E-08
  1 123 2.19106079E-08
  1 124 2.18639691E-08
  1 125 2.18455171E-08
  1 126 2.18450479E-08
  1 127 2.18526503E-08
  1 128 2.18594983E-08
  1 129 2.18584442E-08
  1 130 2.18443706E-08
  1 131 2.18143010E-08
  1 132 2.17672914E-08
  1 133 2.17041520E-08
  1 134 2.16270588E-08
  1 135 2.15391200E-08
  1 136 2.14439534E-08
  1 137 2.13453178E-08
  1 138 2.12468231E-08
  1 139 2.11517245E-08
  1 140 2.10627893E-08
  1 141 2.09822129E-08
  1 142 2.09115586E-08
  1 143 2.08516948E-08
  1 144 2.08027182E-08
  1 145 2.07638577E-08
  1 146 2.07333764E-08
  1 147 2.07084944E-08
  1 148 2.06853672E-08
  1 149 2.06591544E-08
  1 150 2.06242042E-08
  1 151 2.05743680E-08
  1 152 2.05034369E-08
  1 153 2.04056711E-08
  1 154 2.02763711E-08
  1 155 2.01124251E-08
  1 156 1.99127568E-08
  1 157 1.96786026E-08
  1 158 1.94135596E-08
  1 159 1.91233689E-08
  1 160 1.88154335E-08
  1 161 1.84981006E-08
  1 162 1.81797767E-08
  1 163 1.78679698E-08
  1 164 1.75683711E-08
  1 165 1.72840935E-08
  1 166 1.70151725E-08
  1 167 1.67584097E-08
  1 168 1.65076008E-08
  1 169 1.62541443E-08
  1 170 1.59879791E-08
  1 171 1.56987555E-08
  1 172 1.53771094E-08
  1 173 1.50158907E-08
  1 174 1.46111963E-08
  1 175 1.41630753E-08
  1 176 1.36758092E-08
  1 177 1.31577193E-08
  1 178 1.26205083E-08
  1 179 1.20782030E-08
  1 180 1.15458124E-08
  1 181 1.10378545E-08
  1 182 1.05669269E-08
  1 183 1.01424887E-08
  1 184 9.77000496E-09
  1 185 9.45055928E-09
  1 186 9.18098416E-09
  1 187 8.95449905E-09
  1 188 8.76178090E-09
  1 189 8.59233977E-09
  1 190 8.43603318E-09
  1 191 8.28453451E-09
  1 192 8.13257492E-09
  1 193 7.97880487E-09
  1 194 7.82616662E-09
  1 195 7.68172813E-09
  1 196 7.55599392E-09
  1 197 7.46177171E-09
  1 198 7.41272740E-09
  1 199 7.42179829E-09
  1 200 7.49965115E-09
  1 201 2.77931639E-08
  1 202 2.76036494E-08
  1 203 2.74033040E-08
  1 204 2.71836546E-08
  1 205 2.69370436E-08
  1 206 2.66577954E-08
  1 207 2.63431306E-08
  1 208 2.59937233E-08
  1 209 2.56138439E-08
  1 210 2.52110783E-08
  1 211 2.47956705E-08
  1 212 2.43795749E-08
  1 213 2.39753369E-08
  1 214 2.35949357E-08
  1 215 2.32487194E-08
  1 216 2.29445474E-08
  1 217 2.26872205E-08
  1 218 2.24782437E-08
  1 219 2.23159241E-08
  1 220 2.21957652E-08
  1 221 2.21110923E-08
  1 222 2.20538180E-08
  1 223 2.20152543E-08
  1 224 2.19868791E-08
  1 225 2.19609847E-08
  1 226 2.19311555E-08
  1 227 2.18925543E-08
  1 228 2.18420209E-08
  1 229 2.17780092E-08
  1 230 2.17004057E-08
  1 231 2.16102787E-08
  1 232 2.15096036E-08
  1 233 2.14010032E-08
  1 234 2.12875228E-08
  1 235 2.11724489E-08
  1 236 2.10591606E-08
  1 237 2.09509952E-08
  1 238 2.08511057E-08
  1 239 2.07622891E-08
  1 240 2.06867752E-08
  1 241 2.06259799E-08
  1 242 2.05802426E-08
  1 243 2.05485811E-08
  1 244 2.05285086E-08
  1 245 2.05159590E-08
  1 246 2.05053609E-08
  1 247 2.04898874E-08
  1 248 2.04618855E-08
  1 249 2.04134647E-08
  1 250 2.03371958E-08
  1 251 2.02268503E-08
  1 252 2.00780939E-08
  1 253 1.98890421E-08
  1 254 1.96605959E-08
  1 255 1.93964923E-08
  1 256 1.91030387E-08
  1 257 1.87885345E-08
  1 258 1.84624273E-08
  1 259 1.81342851E-08
  1 260 1.78126990E-08
  1 261 1.75042445E-08
  1 262 1.72126324E-08
  1 263 1.69381635E-08
  1 264 1.66775706E-08
  1 265 1.64242874E-08
  1 266 1.61691309E-08
  1 267 1.59013368E-08
  1 268 1.56098361E-08
  1 269 1.52846289E-08
  1 270 1.49180960E-08
  1 271 1.45060874E-08
  1 272 1.40486509E-08
  1 273 1.35503045E-08
  1 274 1.30198064E-08
  1 275 1.24694400E-08
  1 276 1.19138875E-08
  1 277 1.13688183E-08
  1 278 1.08493559E-08
  1 279 1.03686014E-08
  1 280 9.93639070E-09
  1 281 9.55843258E-09
  1 282 9.23593268E-09
  1 283 8.96574779E-09
  1 284 8.74105232E-09
  1 285 8.55243564E-09
  1 286 8.38929651E-09
  1 287 8.24136423E-09
  1 288 8.10016075E-09
  1 289 7.96022512E-09
  1 290 7.81995062E-09
  1 291 7.68193240E-09
  1 292 7.55278318E-09
  1 293 7.44243892E-09
  1 294 7.36303818E-09
  1 295 7.32750947E-09
  1 296 7.34803537E-09
  1 297 7.43457500E-09
  1 298 7.59361826E-09
  1 299 7.82731529E-09
  1 300 8.13307866E-09
  1 301 2.76636152E-08
  1 302 2.74020900E-08
  1 303 2.71105008E-08
  1 304 2.67864385E-08
  1 305 2.64306036E-08
  1 306 2.60469140E-08
  1 307 2.56422317E-08
  1 308 2.52257583E-08
  1 309 2.48081815E-08
  1 310 2.44006824E-08
  1 311 2.40139241E-08
  1 312 2.36571350E-08
  1 313 2.33373832E-08
  1 314 2.30591064E-08
  1 315 2.28239294E-08
  1 316 2.26307619E-08
  1 317 2.24761398E-08
  1 318 2.23547450E-08
  1 319 2.22600295E-08
  1 320 2.21848627E-08
  1 321 2.21221318E-08
  1 322 2.20652414E-08
  1 323 2.20084793E-08
  1 324 2.19472399E-08
  1 325 2.18781185E-08
  1 326 2.17989016E-08
  1 327 2.17084914E-08
  1 328 2.16067980E-08
  1 329 2.14946302E-08
  1 330 2.13735986E-08
  1 331 2.12460351E-08
  1 332 2.11149150E-08
  1 333 2.09837602E-08
  1 334 2.08564987E-08
  1 335 2.07372564E-08
  1 336 2.06300702E-08
  1 337 2.05385264E-08
  1 338 2.04653459E-08
  1 339 2.04119574E-08
  1 340 2.03781122E-08
  1 341 2.03616022E-08
  1 342 2.03581383E-08
  1 343 2.03614373E-08
  1 344 2.03635385E-08
  1 345 2.03553493E-08
  1 346 2.03273814E-08
  1 347 2.02706129E-08
  1 348 2.01773859E-08
  1 349 2.00422343E-08
  1 350 1.98625370E-08
  1 351 1.96389018E-08
  1 352 1.93752122E-08
  1 353 1.90783101E-08
  1 354 1.87573241E-08
  1 355 1.84227061E-08
  1 356 1.80850721E-08
  1 357 1.77539794E-08
  1 358 1.74367823E-08
  1 359 1.71377090E-08
  1 360 1.68572819E-08
  1 361 1.65921647E-08
  1 362 1.63354723E-08
  1 363 1.60775246E-08
  1 364 1.58069679E-08
  1 365 1.55121431E-08
  1 366 1.51825437E-08
  1 367 1.48101925E-08
  1 368 1.43907699E-08
  1 369 1.39243561E-08
  1 370 1.34156879E-08
  1 371 1.28738934E-08
  1 372 1.23117261E-08
  1 373 1.17443826E-08
  1 374 1.11880382E-08
  1 375 1.06582713E-08
  1 376 1.01685605E-08
  1 377 9.72903123E-09
  1 378 9.34559971E-09
  1 379 9.01961288E-09
  1 380 8.74802461E-09
  1 381 8.52408215E-09
  1 382 8.33843586E-09
  1 383 8.18053411E-09
  1 384 8.04013133E-09
  1 385 7.90872479E-09
  1 386 7.78074558E-09
  1 387 7.65436075E-09
  1 388 7.53179193E-09
  1 389 7.41911563E-09
  1 390 7.32557320E-09
  1 391 7.26247767E-09
  1 392 7.24185190E-09
  1 393 7.27496297E-09
  1 394 7.37092743E-09
  1 395 7.53555071E-09
  1 396 7.77053315E-09
  1 397 8.07312884E-09
  1 398 8.43628883E-09
  1 399 8.84926261E-09
  1 400 9.29857980E-09
  1 401 2.71898607E-08
  1 402 2.68287518E-08
  1 403 2.64427957E-08
  1 404 2.60380727E-08
  1 405 2.56226596E-08
  1 406 2.52058831E-08
  1 407 2.47974678E-08
  1 408 2.44066815E-08
  1 409 2.40415760E-08
  1 410 2.37083982E-08
  1 411 2.34112210E-08
  1 412 2.31518112E-08
  1 413 2.29297221E-08
  1 414 2.27425702E-08
  1 415 2.25864422E-08
  1 416 2.24563671E-08
  1 417 2.23467926E-08
  1 418 2.22520150E-08
  1 419 2.21665293E-08
  1 420 2.20852861E-08
  1 421 2.20038579E-08
  1 422 2.19185350E-08
  1 423 2.18263782E-08
  1 424 2.17252548E-08
  1 425 2.16138803E-08
  1 426 2.14918758E-08
  1 427 2.13598348E-08
  1 428 2.12193829E-08
  1 429 2.10731991E-08
  1 430 2.09249646E-08
  1 431 2.07792092E-08
  1 432 2.06410332E-08
  1 433 2.05157031E-08
  1 434 2.04081393E-08
  1 435 2.03223364E-08
  1 436 2.02607785E-08
  1 437 2.02239214E-08
  1 438 2.02098193E-08
  1 439 2.02139652E-08
  1 440 2.02293939E-08
  1 441 2.02470702E-08
  1 442 2.02565468E-08
  1 443 2.02468438E-08
  1 444 2.02074645E-08
  1 445 2.01294387E-08
  1 446 2.00062738E-08
  1 447 1.98346914E-08
  1 448 1.96150499E-08
  1 449 1.93513827E-08
  1 450 1.90510261E-08
  1 451 1.87238597E-08
  1 452 1.83812313E-08
  1 453 1.80346802E-08
  1 454 1.76946036E-08
  1 455 1.73690228E-08
  1 456 1.70626014E-08
  1 457 1.67760413E-08
  1 458 1.65059409E-08
  1 459 1.62451476E-08
  1 460 1.59835749E-08
  1 461 1.57094004E-08
  1 462 1.54105090E-08
  1 463 1.50760175E-08
  1 464 1.46976985E-08
  1 465 1.42711349E-08
  1 466 1.37964623E-08
  1 467 1.32786078E-08
  1 468 1.27269895E-08
  1 469 1.21547085E-08
  1 470 1.15773242E-08
  1 471 1.10113556E-08
  1 472 1.04726821E-08
  1 473 9.97503258E-09
  1 474 9.52873784E-09
  1 475 9.13988988E-09
  1 476 8.81000261E-09
  1 477 8.53620651E-09
  1 478 8.31194547E-09
  1 479 8.12808375E-09
  1 480 7.97428271E-09
  1 481 7.84047584E-09
  1 482 7.71826153E-09
  1 483 7.60204562E-09
  1 484 7.48979876E-09
  1 485 7.38334302E-09
  1 486 7.28814047E-09
  1 487 7.21261747E-09
  1 488 7.16711400E-09
  1 489 7.16259056E-09
  1 490 7.20925151E-09
  1 491 7.31525009E-09
  1 492 7.48562647E-09
  1 493 7.72159825E-09
  1 494 8.02027810E-09
  1 495 8.37484049E-09
  1 496 8.77510638E-09
  1 497 9.20846767E-09
  1 498 9.66103744E-09
  1 499 1.01188916E-08
  1 500 1.05692643E-08
  1 501 2.63864487E-08
  1 502 2.59742639E-08
  1 503 2.55606202E-08
  1 504 2.51537097E-08
  1 505 2.47613434E-08
  1 506 2.43903549E-08
  1 507 2.40461520E-08
  1 508 2.37324470E-08
  1 509 2.34511717E-08
  1 510 2.32025562E-08
  1 511 2.29853343E-08
  1 512 2.27970282E-08
  1 513 2.26342617E-08
  1 514 2.24930609E-08
  1 515 2.23691125E-08
  1 516 2.22579656E-08
  1 517 2.21551835E-08
  1 518 2.20564592E-08
  1 519 2.19577212E-08
  1 520 2.18552540E-08
  1 521 2.17458523E-08
  1 522 2.16270144E-08
  1 523 2.14971666E-08
  1 524 2.13558919E-08
  1 525 2.12041244E-08
  1 526 2.10442632E-08
  1 527 2.08801608E-08
  1 528 2.07169505E-08
  1 529 2.05606944E-08
  1 530 2.04178610E-08
  1 531 2.02946643E-08
  1 532 2.01963253E-08
  1 533 2.01263370E-08
  1 534 2.00858229E-08
  1 535 2.00730827E-08
  1 536 2.00834014E-08
  1 537 2.01091742E-08
  1 538 2.01403663E-08
  1 539 2.01652807E-08
  1 540 2.01715723E-08
  1 541 2.01474064E-08
  1 542 2.00826346E-08
  1 543 1.99698534E-08
  1 544 1.98052128E-08
  1 545 1.95888669E-08
  1 546 1.93249972E-08
  1 547 1.90213868E-08
  1 548 1.86885774E-08
  1 549 1.83386938E-08
  1 550 1.79840635E-08
  1 551 1.76357901E-08
  1 552 1.73024462E-08
  1 553 1.69890478E-08
  1 554 1.66964369E-08
  1 555 1.64211565E-08
  1 556 1.61558436E-08
  1 557 1.58901035E-08
  1 558 1.56117703E-08
  1 559 1.53084098E-08
  1 560 1.49688912E-08
  1 561 1.45848415E-08
  1 562 1.41518095E-08
  1 563 1.36700002E-08
  1 564 1.31444905E-08
  1 565 1.25848970E-08
  1 566 1.20045351E-08
  1 567 1.14191677E-08
  1 568 1.08454894E-08
  1 569 1.02995242E-08
  1 570 9.79512570E-09
  1 571 9.34274880E-09
  1 572 8.94863521E-09
  1 573 8.61449716E-09
  1 574 8.33772658E-09
  1 575 8.11209173E-09
  1 576 7.92882575E-09
  1 577 7.77796635E-09
  1 578 7.64977831E-09
  1 579 7.53608428E-09
  1 580 7.43134483E-09
  1 581 7.33336261E-09
  1 582 7.24353485E-09
  1 583 7.16663481E-09
  1 584 7.11016098E-09
  1 585 7.08334367E-09
  1 586 7.09593808E-09
  1 587 7.15695418E-09
  1 588 7.27347706E-09
  1 589 7.44971524E-09
  1 590 7.68638225E-09
  1 591 7.98047362E-09
  1 592 8.32545204E-09
  1 593 8.71180548E-09
  1 594 9.12790112E-09
  1 595 9.56102836E-09
  1 596 9.99850847E-09
  1 597 1.04287492E-08
  1 598 1.08421370E-08
  1 599 1.12316877E-08
  1 600 1.15934081E-08
  1 601 2.54580848E-08
  1 602 2.50666156E-08
  1 603 2.46922610E-08
  1 604 2.43395832E-08
  1 605 2.40119446E-08
  1 606 2.37114638E-08
  1 607 2.34390743E-08
  1 608 2.31946506E-08
  1 609 2.29771638E-08
  1 610 2.27848310E-08
  1 611 2.26152380E-08
  1 612 2.24654252E-08
  1 613 2.23319467E-08
  1 614 2.22109209E-08
  1 615 2.20981032E-08
  1 616 2.19890080E-08
  1 617 2.18791035E-08
  1 618 2.17640872E-08
  1 619 2.16402327E-08
  1 620 2.15047793E-08
  1 621 2.13563172E-08
  1 622 2.11951104E-08
  1 623 2.10232962E-08
  1 624 2.08449055E-08
  1 625 2.06656658E-08
  1 626 2.04925741E-08
  1 627 2.03332557E-08
  1 628 2.01951604E-08
  1 629 2.00846726E-08
  1 630 2.00062350E-08
  1 631 1.99615963E-08
  1 632 1.99492838E-08
  1 633 1.99643902E-08
  1 634 1.99987248E-08
  1 635 2.00413435E-08
  1 636 2.00794224E-08
  1 637 2.00993963E-08
  1 638 2.00882461E-08
  1 639 2.00347925E-08
  1 640 1.99308468E-08
  1 641 1.97720768E-08
  1 642 1.95584763E-08
  1 643 1.92943686E-08
  1 644 1.89879276E-08
  1 645 1.86502587E-08
  1 646 1.82941350E-08
  1 647 1.79325295E-08
  1 648 1.75771127E-08
  1 649 1.72368908E-08
  1 650 1.69171503E-08
  1 651 1.66188376E-08
  1 652 1.63384555E-08
  1 653 1.60684944E-08
  1 654 1.57983548E-08
  1 655 1.55156569E-08
  1 656 1.52077852E-08
  1 657 1.48634884E-08
  1 658 1.44743464E-08
  1 659 1.40359297E-08
  1 660 1.35485165E-08
  1 661 1.30172816E-08
  1 662 1.24519383E-08
  1 663 1.18658747E-08
  1 664 1.12748909E-08
  1 665 1.06956857E-08
  1 666 1.01442720E-08
  1 667 9.63450382E-09
  1 668 9.17688402E-09
  1 669 8.77778298E-09
  1 670 8.43914763E-09
  1 671 8.15872000E-09
  1 672 7.93072228E-09
  1 673 7.74691107E-09
  1 674 7.59786133E-09
  1 675 7.47431729E-09
  1 676 7.36844452E-09
  1 677 7.27483449E-09
  1 678 7.19114834E-09
  1 679 7.11833432E-09
  1 680 7.06040755E-09
  1 681 7.02383470E-09
  1 682 7.01661264E-09
  1 683 7.04716402E-09
  1 684 7.12318998E-09
  1 685 7.25061975E-09
  1 686 7.43277906E-09
  1 687 7.66986767E-09
  1 688 7.95879493E-09
  1 689 8.29337769E-09
  1 690 8.66486166E-09
  1 691 9.06269228E-09
  1 692 9.47543690E-09
  1 693 9.89174996E-09
  1 694 1.03012765E-08
  1 695 1.06954059E-08
  1 696 1.10678126E-08
  1 697 1.14147532E-08
  1 698 1.17351184E-08
  1 699 1.20302683E-08
  1 700 1.23036992E-08
  1 701 2.45785483E-08
  1 702 2.42396879E-08
  1 703 2.39228439E-08
  1 704 2.36296720E-08
  1 705 2.33611981E-08
  1 706 2.31178385E-08
  1 707 2.28993833E-08
  1 708 2.27049402E-08
  1 709 2.25328525E-08
  1 710 2.23806184E-08
  1 711 2.22448491E-08
  1 712 2.21213052E-08
  1 713 2.20050420E-08
  1 714 2.18906829E-08
  1 715 2.17728190E-08
  1 716 2.16465079E-08
  1 717 2.15078236E-08
  1 718 2.13543927E-08
  1 719 2.11858369E-08
  1 720 2.10040501E-08
  1 721 2.08132432E-08
  1 722 2.06197186E-08
  1 723 2.04313654E-08
  1 724 2.02569043E-08
  1 725 2.01049458E-08
  1 726 1.99829592E-08
  1 727 1.98962677E-08
  1 728 1.98471954E-08
  1 729 1.98344799E-08
  1 730 1.98530430E-08
  1 731 1.98941720E-08
  1 732 1.99461187E-08
  1 733 1.99950709E-08
  1 734 2.00264043E-08
  1 735 2.00260837E-08
  1 736 1.99820573E-08
  1 737 1.98854831E-08
  1 738 1.97316385E-08
  1 739 1.95203992E-08
  1 740 1.92562180E-08
  1 741 1.89475959E-08
  1 742 1.86060947E-08
  1 743 1.82449991E-08
  1 744 1.78777785E-08
  1 745 1.75165276E-08
  1 746 1.71705677E-08
  1 747 1.68453761E-08
  1 748 1.65419731E-08
  1 749 1.62568421E-08
  1 750 1.59823966E-08
  1 751 1.57079406E-08
  1 752 1.54210120E-08
  1 753 1.51089513E-08
  1 754 1.47605106E-08
  1 755 1.43673144E-08
  1 756 1.39250022E-08
  1 757 1.34339182E-08
  1 758 1.28992744E-08
  1 759 1.23307695E-08
  1 760 1.17417153E-08
  1 761 1.11477793E-08
  1 762 1.05654925E-08
  1 763 1.00107016E-08
  1 764 9.49714172E-09
  1 765 9.03529226E-09
  1 766 8.63163640E-09
  1 767 8.28839629E-09
  1 768 8.00375481E-09
  1 769 7.77251739E-09
  1 770 7.58711571E-09
  1 771 7.43881782E-09
  1 772 7.31898937E-09
  1 773 7.22025111E-09
  1 774 7.13739663E-09
  1 775 7.06796977E-09
  1 776 7.01244720E-09
  1 777 6.97402242E-09
  1 778 6.95803684E-09
  1 779 6.97114447E-09
  1 780 7.02032546E-09
  1 781 7.11187629E-09
  1 782 7.25050062E-09
  1 783 7.43860590E-09
  1 784 7.67587984E-09
  1 785 7.95918272E-09
  1 786 8.28275139E-09
  1 787 8.63867405E-09
  1 788 9.01756610E-09
  1 789 9.40935941E-09
  1 790 9.80411222E-09
  1 791 1.01927538E-08
  1 792 1.05676949E-08
  1 793 1.09232593E-08
  1 794 1.12559186E-08
  1 795 1.15643383E-08
  1 796 1.18492631E-08
  1 797 1.21132846E-08
  1 798 1.23605385E-08
  1 799 1.25963736E-08
  1 800 1.28270280E-08
  1 801 2.37658450E-08
  1 802 2.34766293E-08
  1 803 2.32108802E-08
  1 804 2.29699226E-08
  1 805 2.27543321E-08
  1 806 2.25636896E-08
  1 807 2.23963680E-08
  1 808 2.22494065E-08
  1 809 2.21185170E-08
  1 810 2.19982596E-08
  1 811 2.18823986E-08
  1 812 2.17644250E-08
  1 813 2.16382051E-08
  1 814 2.14986850E-08
  1 815 2.13425673E-08
  1 816 2.11688655E-08
  1 817 2.09792482E-08
  1 818 2.07781021E-08
  1 819 2.05722738E-08
  1 820 2.03704882E-08
  1 821 2.01824825E-08
  1 822 2.00179371E-08
  1 823 1.98853137E-08
  1 824 1.97907363E-08
  1 825 1.97370502E-08
  1 826 1.97231857E-08
  1 827 1.97439208E-08
  1 828 1.97900946E-08
  1 829 1.98492728E-08
  1 830 1.99068076E-08
  1 831 1.99471904E-08
  1 832 1.99555494E-08
  1 833 1.99191269E-08
  1 834 1.98285639E-08
  1 835 1.96788397E-08
  1 836 1.94697499E-08
  1 837 1.92058590E-08
  1 838 1.88959232E-08
  1 839 1.85518461E-08
  1 840 1.81872804E-08
  1 841 1.78160388E-08
  1 842 1.74504957E-08
  1 843 1.71001703E-08
  1 844 1.67706550E-08
  1 845 1.64630183E-08
  1 846 1.61737515E-08
  1 847 1.58952657E-08
  1 848 1.56168803E-08
  1 849 1.53261841E-08
  1 850 1.50106089E-08
  1 851 1.46590283E-08
  1 852 1.42631967E-08
  1 853 1.38188598E-08
  1 854 1.33264122E-08
  1 855 1.27910323E-08
  1 856 1.22222860E-08
  1 857 1.16332557E-08
  1 858 1.10393042E-08
  1 859 1.04566241E-08
  1 860 9.90074496E-09
  1 861 9.38516884E-09
  1 862 8.92028585E-09
  1 863 8.51268127E-09
  1 864 8.16489599E-09
  1 865 7.87564494E-09
  1 866 7.64044344E-09
  1 867 7.45254455E-09
  1 868 7.30405771E-09
  1 869 7.18710340E-09
  1 870 7.09486180E-09
  1 871 7.02239380E-09
  1 872 6.96714749E-09
  1 873 6.92910710E-09
  1 874 6.91058784E-09
  1 875 6.91572398E-09
  1 876 6.94973304E-09
  1 877 7.01806130E-09
  1 878 7.12552427E-09
  1 879 7.27554897E-09
  1 880 7.46960464E-09
  1 881 7.70687971E-09
  1 882 7.98422760E-09
  1 883 8.29636991E-09
  1 884 8.63631483E-09
  1 885 8.99592704E-09
  1 886 9.36657358E-09
  1 887 9.73976974E-09
  1 888 1.01077590E-08
  1 889 1.04639780E-08
  1 890 1.08033804E-08
  1 891 1.11226141E-08
  1 892 1.14200673E-08
  1 893 1.16958130E-08
  1 894 1.19514850E-08
  1 895 1.21901203E-08
  1 896 1.24159922E-08
  1 897 1.26344474E-08
  1 898 1.28517447E-08
  1 899 1.30748820E-08
  1 900 1.33113895E-08
  1 901 2.29896327E-08
  1 902 2.27566113E-08
  1 903 2.25511136E-08
  1 904 2.23723120E-08
  1 905 2.22176076E-08
  1 906 2.20826159E-08
  1 907 2.19613767E-08
  1 908 2.18467949E-08
  1 909 2.17312858E-08
  1 910 2.16075659E-08
  1 911 2.14695045E-08
  1 912 2.13129314E-08
  1 913 2.11362908E-08
  1 914 2.09410441E-08
  1 915 2.07317434E-08
  1 916 2.05157380E-08
  1 917 2.03025177E-08
  1 918 2.01027426E-08
  1 919 1.99270564E-08
  1 920 1.97848087E-08
  1 921 1.96828352E-08
  1 922 1.96244440E-08
  1 923 1.96087416E-08
  1 924 1.96303942E-08
  1 925 1.96798761E-08
  1 926 1.97441951E-08
  1 927 1.98080330E-08
  1 928 1.98551823E-08
  1 929 1.98701228E-08
  1 930 1.98395629E-08
  1 931 1.97537646E-08
  1 932 1.96074993E-08
  1 933 1.94005163E-08
  1 934 1.91374665E-08
  1 935 1.88272830E-08
  1 936 1.84820895E-08
  1 937 1.81157588E-08
  1 938 1.77422905E-08
  1 939 1.73741951E-08
  1 940 1.70210752E-08
  1 941 1.66885676E-08
  1 942 1.63777693E-08
  1 943 1.60852122E-08
  1 944 1.58033849E-08
  1 945 1.55217362E-08
  1 946 1.52280384E-08
  1 947 1.49099463E-08
  1 948 1.45565680E-08
  1 949 1.41598641E-08
  1 950 1.37157151E-08
  1 951 1.32245408E-08
  1 952 1.26914082E-08
  1 953 1.21256270E-08
  1 954 1.15398942E-08
  1 955 1.09490974E-08
  1 956 1.03689236E-08
  1 957 9.81444020E-09
  1 958 9.29880845E-09
  1 959 8.83226994E-09
  1 960 8.42150584E-09
  1 961 8.06942134E-09
  1 962 7.77535328E-09
  1 963 7.53564868E-09
  1 964 7.34452033E-09
  1 965 7.19505744E-09
  1 966 7.08025812E-09
  1 967 6.99395660E-09
  1 968 6.93153915E-09
  1 969 6.89037667E-09
  1 970 6.86994214E-09
  1 971 6.87162318E-09
  1 972 6.89827775E-09
  1 973 6.95361001E-09
  1 974 7.04146041E-09
  1 975 7.16510742E-09
  1 976 7.32666901E-09
  1 977 7.52667169E-09
  1 978 7.76382757E-09
  1 979 8.03502957E-09
  1 980 8.33554633E-09
  1 981 8.65937507E-09
  1 982 8.99969576E-09
  1 983 9.34936474E-09
  1 984 9.70139003E-09
  1 985 1.00493429E-08
  1 986 1.03876775E-08
  1 987 1.07119492E-08
  1 988 1.10189401E-08
  1 989 1.13067129E-08
  1 990 1.15746201E-08
  1 991 1.18232959E-08
  1 992 1.20546476E-08
  1 993 1.22718544E-08
  1 994 1.24793649E-08
  1 995 1.26828704E-08
  1 996 1.28892238E-08
  1 997 1.31062712E-08
  1 998 1.33425666E-08
  1 999 1.36069552E-08
  1 1000 1.39080304E-08
  1 1001 2.23027520E-08
  1 1002 2.21435064E-08
  1 1003 2.20073744E-08
  1 1004 2.18878636E-08
  1 1005 2.17770357E-08
  1 1006 2.16662712E-08
  1 1007 2.15471959E-08
  1 1008 2.14126683E-08
  1 1009 2.12577060E-08
  1 1010 2.10802282E-08
  1 1011 2.08815060E-08
  1 1012 2.06662408E-08
  1 1013 2.04422328E-08
  1 1014 2.02196522E-08
  1 1015 2.00099738E-08
  1 1016 1.98246851E-08
  1 1017 1.96739073E-08
  1 1018 1.95650913E-08
  1 1019 1.95019466E-08
  1 1020 1.94837402E-08
  1 1021 1.95050641E-08
  1 1022 1.95561180E-08
  1 1023 1.96234907E-08
  1 1024 1.96913675E-08
  1 1025 1.97430353E-08
  1 1026 1.97625195E-08
  1 1027 1.97361687E-08
  1 1028 1.96540033E-08
  1 1029 1.95106732E-08
  1 1030 1.93059092E-08
  1 1031 1.90444169E-08
  1 1032 1.87352208E-08
  1 1033 1.83905378E-08
  1 1034 1.80243093E-08
  1 1035 1.76505654E-08
  1 1036 1.72818109E-08
  1 1037 1.69276220E-08
  1 1038 1.65936147E-08
  1 1039 1.62809015E-08
  1 1040 1.59860934E-08
  1 1041 1.57018396E-08
  1 1042 1.54178340E-08
  1 1043 1.51221631E-08
  1 1044 1.48028321E-08
  1 1045 1.44492889E-08
  1 1046 1.40537679E-08
  1 1047 1.36123047E-08
  1 1048 1.31253111E-08
  1 1049 1.25976583E-08
  1 1050 1.20382737E-08
  1 1051 1.14593137E-08
  1 1052 1.08750230E-08
  1 1053 1.03004221E-08
  1 1054 9.74997883E-09
  1 1055 9.23641408E-09
  1 1056 8.76976829E-09
  1 1057 8.35681663E-09
  1 1058 8.00087499E-09
  1 1059 7.70198874E-09
  1 1060 7.45745142E-09
  1 1061 7.26256368E-09
  1 1062 7.11152060E-09
  1 1063 6.99830818E-09
  1 1064 6.91749813E-09
  1 1065 6.86485228E-09
  1 1066 6.83767954E-09
  1 1067 6.83492505E-09
  1 1068 6.85700765E-09
  1 1069 6.90545310E-09
  1 1070 6.98239293E-09
  1 1071 7.09000984E-09
  1 1072 7.23000946E-09
  1 1073 7.40318692E-09
  1 1074 7.60913610E-09
  1 1075 7.84612502E-09
  1 1076 8.11113528E-09
  1 1077 8.40004118E-09
  1 1078 8.70788836E-09
  1 1079 9.02922384E-09
  1 1080 9.35843046E-09
  1 1081 9.69002727E-09
  1 1082 1.00189113E-08
  1 1083 1.03405336E-08
  1 1084 1.06510162E-08
  1 1085 1.09472328E-08
  1 1086 1.12268762E-08
  1 1087 1.14885399E-08
  1 1088 1.17318289E-08
  1 1089 1.19575040E-08
  1 1090 1.21676454E-08
  1 1091 1.23658067E-08
  1 1092 1.25571181E-08
  1 1093 1.27482907E-08
  1 1094 1.29474802E-08
  1 1095 1.31639750E-08
  1 1096 1.34077016E-08
  1 1097 1.36885575E-08
  1 1098 1.40156189E-08
  1 1099 1.43962896E-08
  1 1100 1.48354814E-08
  1 1101 2.17723826E-08
  1 1102 2.16673520E-08
  1 1103 2.15631981E-08
  1 1104 2.14505319E-08
  1 1105 2.13212809E-08
  1 1106 2.11697212E-08
  1 1107 2.09932954E-08
  1 1108 2.07931005E-08
  1 1109 2.05739648E-08
  1 1110 2.03440777E-08
  1 1111 2.01141934E-08
  1 1112 1.98964805E-08
  1 1113 1.97031382E-08
  1 1114 1.95449339E-08
  1 1115 1.94298315E-08
  1 1116 1.93618777E-08
  1 1117 1.93404863E-08
  1 1118 1.93602172E-08
  1 1119 1.94110928E-08
  1 1120 1.94794285E-08
  1 1121 1.95490940E-08
  1 1122 1.96030693E-08
  1 1123 1.96251215E-08
  1 1124 1.96014134E-08
  1 1125 1.95218576E-08
  1 1126 1.93810633E-08
  1 1127 1.91787641E-08
  1 1128 1.89196811E-08
  1 1129 1.86128388E-08
  1 1130 1.82704165E-08
  1 1131 1.79062711E-08
  1 1132 1.75343080E-08
  1 1133 1.71668882E-08
  1 1134 1.68134577E-08
  1 1135 1.64795536E-08
  1 1136 1.61662972E-08
  1 1137 1.58704222E-08
  1 1138 1.55848247E-08
  1 1139 1.52995591E-08
  1 1140 1.50031537E-08
  1 1141 1.46840857E-08
  1 1142 1.43322398E-08
  1 1143 1.39401838E-08
  1 1144 1.35041193E-08
  1 1145 1.30244102E-08
  1 1146 1.25056441E-08
  1 1147 1.19562388E-08
  1 1148 1.13876575E-08
  1 1149 1.08133410E-08
  1 1150 1.02474908E-08
  1 1151 9.70384709E-09
  1 1152 9.19459997E-09
  1 1153 8.72954327E-09
  1 1154 8.31554817E-09
  1 1155 7.95638718E-09
  1 1156 7.65289602E-09
  1 1157 7.40342032E-09
  1 1158 7.20446424E-09
  1 1159 7.05144057E-09
  1 1160 6.93941906E-09
  1 1161 6.86377991E-09
  1 1162 6.82070198E-09
  1 1163 6.80744383E-09
  1 1164 6.82240856E-09
  1 1165 6.86501348E-09
  1 1166 6.93541024E-09
  1 1167 7.03411647E-09
  1 1168 7.16162534E-09
  1 1169 7.31805413E-09
  1 1170 7.50287924E-09
  1 1171 7.71478574E-09
  1 1172 7.95163777E-09
  1 1173 8.21055625E-09
  1 1174 8.48807471E-09
  1 1175 8.78033582E-09
  1 1176 9.08329043E-09
  1 1177 9.39286799E-09
  1 1178 9.70509970E-09
  1 1179 1.00161916E-08
  1 1180 1.03225600E-08
  1 1181 1.06208541E-08
  1 1182 1.09079965E-08
  1 1183 1.11812729E-08
  1 1184 1.14384894E-08
  1 1185 1.16782071E-08
  1 1186 1.19000385E-08
  1 1187 1.21049726E-08
  1 1188 1.22956819E-08
  1 1189 1.24767466E-08
  1 1190 1.26547386E-08
  1 1191 1.28381089E-08
  1 1192 1.30368463E-08
  1 1193 1.32619014E-08
  1 1194 1.35243995E-08
  1 1195 1.38347033E-08
  1 1196 1.42014123E-08
  1 1197 1.46304060E-08
  1 1198 1.51240459E-08
  1 1199 1.56806457E-08
  1 1200 1.62942931E-08
  1 1201 2.13122607E-08
  1 1202 2.11895966E-08
  1 1203 2.10428578E-08
  1 1204 2.08690626E-08
  1 1205 2.06691490E-08
  1 1206 2.04480440E-08
  1 1207 2.02142556E-08
  1 1208 1.99790147E-08
  1 1209 1.97550512E-08
  1 1210 1.95551346E-08
  1 1211 1.93905452E-08
  1 1212 1.92696532E-08
  1 1213 1.91967776E-08
  1 1214 1.91714669E-08
  1 1215 1.91882951E-08
  1 1216 1.92372104E-08
  1 1217 1.93044056E-08
  1 1218 1.93736199E-08
  1 1219 1.94277270E-08
  1 1220 1.94504314E-08
  1 1221 1.94278805E-08
  1 1222 1.93500076E-08
  1 1223 1.92114548E-08
  1 1224 1.90119716E-08
  1 1225 1.87562492E-08
  1 1226 1.84532151E-08
  1 1227 1.81148770E-08
  1 1228 1.77548548E-08
  1 1229 1.73867771E-08
  1 1230 1.70227287E-08
  1 1231 1.66719281E-08
  1 1232 1.63397832E-08
  1 1233 1.60274240E-08
  1 1234 1.57317551E-08
  1 1235 1.54460077E-08
  1 1236 1.51607108E-08
  1 1237 1.48649577E-08
  1 1238 1.45478117E-08
  1 1239 1.41996833E-08
  1 1240 1.38135239E-08
  1 1241 1.33857043E-08
  1 1242 1.29164953E-08
  1 1243 1.24101108E-08
  1 1244 1.18743334E-08
  1 1245 1.13197864E-08
  1 1246 1.07589543E-08
  1 1247 1.02050775E-08
  1 1248 9.67105248E-09
  1 1249 9.16845787E-09
  1 1250 8.70680293E-09
  1 1251 8.29306007E-09
  1 1252 7.93150291E-09
  1 1253 7.62383263E-09
  1 1254 7.36954144E-09
  1 1255 7.16643814E-09
  1 1256 7.01124889E-09
  1 1257 6.90020712E-09
  1 1258 6.82955910E-09
  1 1259 6.79593279E-09
  1 1260 6.79654432E-09
  1 1261 6.82924311E-09
  1 1262 6.89242106E-09
  1 1263 6.98482796E-09
  1 1264 7.10534442E-09
  1 1265 7.25276246E-09
  1 1266 7.42561509E-09
  1 1267 7.62208116E-09
  1 1268 7.83997321E-09
  1 1269 8.07679823E-09
  1 1270 8.32986705E-09
  1 1271 8.59641956E-09
  1 1272 8.87373226E-09
  1 1273 9.15918104E-09
  1 1274 9.45024476E-09
  1 1275 9.74445146E-09
  1 1276 1.00392855E-08
  1 1277 1.03320881E-08
  1 1278 1.06199916E-08
  1 1279 1.08999285E-08
  1 1280 1.11687472E-08
  1 1281 1.14234515E-08
  1 1282 1.16615586E-08
  1 1283 1.18815458E-08
  1 1284 1.20833336E-08
  1 1285 1.22687363E-08
  1 1286 1.24418009E-08
  1 1287 1.26089606E-08
  1 1288 1.27789405E-08
  1 1289 1.29623828E-08