# File generated by Flopy version 3.6.0 on 02/20/2024 at 15:14:31.
BEGIN options
END options

BEGIN dimensions
  MAXBOUND  5000
END dimensions

BEGIN period  1
  1 1 1.36025632E-08
  1 2 1.24745374E-08
  1 3 1.16500831E-08
  1 4 1.10399314E-08
  1 5 1.21757320E-08
  1 6 1.20528586E-08
  1 7 1.30055679E-08
  1 8 1.20436019E-08
  1 9 1.32632209E-08
  1 10 1.44821785E-08
  1 11 1.45520063E-08
  1 12 1.35242063E-08
  1 13 1.40148100E-08
  1 14 1.55625970E-08
  1 15 1.56757203E-08
  1 16 1.51805281E-08
  1 17 1.39521752E-08
  1 18 1.31511734E-08
  1 19 1.42590523E-08
  1 20 1.55251325E-08
  1 21 1.55849868E-08
  1 22 1.52214108E-08
  1 23 1.48319180E-08
  1 24 1.43194164E-08
  1 25 1.37827722E-08
  1 26 1.47715307E-08
  1 27 1.41753819E-08
  1 28 1.37314040E-08
  1 29 1.32288694E-08
  1 30 1.25714101E-08
  1 31 1.24868913E-08
  1 32 1.36602714E-08
  1 33 1.59359126E-08
  1 34 1.67236617E-08
  1 35 1.78202140E-08
  1 36 1.83121557E-08
  1 37 1.81275909E-08
  1 38 1.96352216E-08
  1 39 1.96219522E-08
  1 40 2.09401661E-08
  1 41 2.06890819E-08
  1 42 2.32271269E-08
  1 43 2.12003006E-08
  1 44 1.98770134E-08
  1 45 1.82625392E-08
  1 46 1.87438186E-08
  1 47 2.00257892E-08
  1 48 2.00791990E-08
  1 49 1.97477688E-08
  1 50 1.69200127E-08
  1 51 1.76070951E-08
  1 52 1.54916439E-08
  1 53 1.49615589E-08
  1 54 1.30166828E-08
  1 55 1.44747728E-08
  1 56 1.39384997E-08
  1 57 1.52811655E-08
  1 58 1.40407732E-08
  1 59 1.24999054E-08
  1 60 1.01800844E-08
  1 61 1.07225938E-08
  1 62 1.13971953E-08
  1 63 1.26129788E-08
  1 64 1.31682982E-08
  1 65 1.17191925E-08
  1 66 1.14043842E-08
  1 67 1.10905981E-08
  1 68 1.22345226E-08
  1 69 1.09226443E-08
  1 70 1.36933134E-08
  1 71 1.47798363E-08
  1 72 1.66739174E-08
  1 73 1.53057145E-08
  1 74 1.56420232E-08
  1 75 1.54676877E-08
  1 76 1.75775745E-08
  1 77 1.78733201E-08
  1 78 1.67859183E-08
  1 79 1.61618237E-08
  1 80 1.75678725E-08
  1 81 1.75194374E-08
  1 82 1.66518637E-08
  1 83 1.63489181E-08
  1 84 1.71601643E-08
  1 85 1.82495295E-08
  1 86 1.83126423E-08
  1 87 1.79384570E-08
  1 88 1.63469143E-08
  1 89 1.84241920E-08
  1 90 1.76972189E-08
  1 91 1.78671158E-08
  1 92 1.53063838E-08
  1 93 1.63076433E-08
  1 94 1.54414932E-08
  1 95 1.72145304E-08
  1 96 1.77667469E-08
  1 97 1.73090404E-08
  1 98 1.75702762E-08
  1 99 1.83113550E-08
  1 100 2.04408199E-08
  1 101 1.22402836E-08
  1 102 1.34106668E-08
  1 103 1.33084564E-08
  1 104 1.28626074E-08
  1 105 1.25078920E-08
  1 106 1.28682641E-08
  1 107 1.42555274E-08
  1 108 1.44873064E-08
  1 109 1.38749664E-08
  1 110 1.32434120E-08
  1 111 1.57846555E-08
  1 112 1.65986492E-08
  1 113 1.65212202E-08
  1 114 1.49371311E-08
  1 115 1.49587316E-08
  1 116 1.43561980E-08
  1 117 1.61124942E-08
  1 118 1.54705836E-08
  1 119 1.52357450E-08
  1 120 1.41172561E-08
  1 121 1.56457209E-08
  1 122 1.54767339E-08
  1 123 1.58383365E-08
  1 124 1.52513217E-08
  1 125 1.32586488E-08
  1 126 1.33214842E-08
  1 127 1.26323554E-08
  1 128 1.44399346E-08
  1 129 1.31404057E-08
  1 130 1.64975095E-08
  1 131 1.55238672E-08
  1 132 1.68428150E-08
  1 133 1.57549810E-08
  1 134 1.78073201E-08
  1 135 1.89100366E-08
  1 136 2.10842856E-08
  1 137 2.19867933E-08
  1 138 2.11527168E-08
  1 139 2.18493979E-08
  1 140 2.12559127E-08
  1 141 2.02334932E-08
  1 142 1.82624056E-08
  1 143 1.89535957E-08
  1 144 1.86796180E-08
  1 145 1.89646722E-08
  1 146 1.75418109E-08
  1 147 1.65491421E-08
  1 148 1.42274797E-08
  1 149 1.46488311E-08
  1 150 1.28974018E-08
  1 151 1.32950584E-08
  1 152 1.31266614E-08
  1 153 1.45782215E-08
  1 154 1.36525440E-08
  1 155 1.34620366E-08
  1 156 1.22713847E-08
  1 157 1.02774782E-08
  1 158 1.03024368E-08
  1 159 1.14092811E-08
  1 160 1.31109158E-08
  1 161 1.27154319E-08
  1 162 1.20797671E-08
  1 163 9.99923938E-09
  1 164 1.00656444E-08
  1 165 1.08336140E-08
  1 166 1.19357152E-08
  1 167 1.19172102E-08
  1 168 1.38892138E-08
  1 169 1.32073456E-08
  1 170 1.26230987E-08
  1 171 1.15819977E-08
  1 172 1.38222526E-08
  1 173 1.50347853E-08
  1 174 1.60786051E-08
  1 175 1.53631551E-08
  1 176 1.41528317E-08
  1 177 1.59222610E-08
  1 178 1.66599272E-08
  1 179 1.71197959E-08
  1 180 1.59441026E-08
  1 181 1.78696462E-08
  1 182 1.83464876E-08
  1 183 1.79192122E-08
  1 184 1.70973355E-08
  1 185 1.59061836E-08
  1 186 1.71808608E-08
  1 187 1.77660081E-08
  1 188 1.80691459E-08
  1 189 1.56046532E-08
  1 190 1.55156907E-08
  1 191 1.61709921E-08
  1 192 1.70254961E-08
  1 193 1.85658186E-08
  1 194 1.85576757E-08
  1 195 1.90488055E-08
  1 196 1.90506120E-08
  1 197 2.12765170E-08
  1 198 2.02729210E-08
  1 199 1.97866423E-08
  1 200 1.84880810E-08
  1 201 1.41962990E-08
  1 202 1.24732027E-08
  1 203 1.32962945E-08
  1 204 1.25140765E-08
  1 205 1.39761686E-08
  1 206 1.27329413E-08
  1 207 1.47212389E-08
  1 208 1.50535080E-08
  1 209 1.88039679E-08
  1 210 1.70456284E-08
  1 211 1.63668689E-08
  1 212 1.49945559E-08
  1 213 1.55495068E-08
  1 214 1.60222143E-08
  1 215 1.58946250E-08
  1 216 1.63196897E-08
  1 217 1.47260234E-08
  1 218 1.68789868E-08
  1 219 1.67572725E-08
  1 220 1.72896585E-08
  1 221 1.56495981E-08
  1 222 1.60167019E-08
  1 223 1.53734358E-08
  1 224 1.59880745E-08
  1 225 1.58955891E-08
  1 226 1.53959478E-08
  1 227 1.50260995E-08
  1 228 1.60316343E-08
  1 229 1.50915702E-08
  1 230 1.50259249E-08
  1 231 1.58825209E-08
  1 232 1.85618030E-08
  1 233 1.93589924E-08
  1 234 1.99164466E-08
  1 235 1.95897559E-08
  1 236 1.96432508E-08
  1 237 2.13821149E-08
  1 238 2.10256485E-08
  1 239 1.98459610E-08
  1 240 1.77788320E-08
  1 241 1.83018761E-08
  1 242 1.73410406E-08
  1 243 1.74401447E-08
  1 244 1.64972465E-08
  1 245 1.50553465E-08
  1 246 1.33062535E-08
  1 247 1.29798090E-08
  1 248 1.28130386E-08
  1 249 1.30983858E-08
  1 250 1.39555688E-08
  1 251 1.44592843E-08
  1 252 1.41992201E-08
  1 253 1.39031298E-08
  1 254 1.22948502E-08
  1 255 1.05242719E-08
  1 256 1.13983462E-08
  1 257 1.32951306E-08
  1 258 1.34228317E-08
  1 259 1.16012846E-08
  1 260 1.00023912E-08
  1 261 9.45922362E-09
  1 262 9.97127171E-09
  1 263 1.11567420E-08
  1 264 1.02325070E-08
  1 265 1.08400491E-08
  1 266 1.09043513E-08
  1 267 1.11490574E-08
  1 268 1.03334814E-08
  1 269 1.19782389E-08
  1 270 1.37158773E-08
  1 271 1.28697695E-08
  1 272 1.28464685E-08
  1 273 1.15232780E-08
  1 274 1.43110821E-08
  1 275 1.49579753E-08
  1 276 1.71419265E-08
  1 277 1.47271474E-08
  1 278 1.58622490E-08
  1 279 1.59953068E-08
  1 280 1.62213195E-08
  1 281 1.58865460E-08
  1 282 1.68692140E-08
  1 283 1.86189763E-08
  1 284 1.84691427E-08
  1 285 1.85760424E-08
  1 286 1.62519343E-08
  1 287 1.61926757E-08
  1 288 1.68565148E-08
  1 289 1.92270352E-08
  1 290 1.94114858E-08
  1 291 2.09681910E-08
  1 292 1.99108978E-08
  1 293 1.98926803E-08
  1 294 1.87764717E-08
  1 295 1.99880248E-08
  1 296 1.80601007E-08
  1 297 1.82850892E-08
  1 298 1.80793840E-08
  1 299 1.88152388E-08
  1 300 1.85673157E-08
  1 301 1.21473166E-08
  1 302 1.24634436E-08
  1 303 1.34378829E-08
  1 304 1.47903635E-08
  1 305 1.57335640E-08
  1 306 1.71729744E-08
  1 307 1.73757736E-08
  1 308 1.63776771E-08
  1 309 1.60974973E-08
  1 310 1.69214701E-08
  1 311 1.76294515E-08
  1 312 1.66482408E-08
  1 313 1.67576048E-08
  1 314 1.62333538E-08
  1 315 1.66682463E-08
  1 316 1.79438826E-08
  1 317 1.81699438E-08
  1 318 1.81510334E-08
  1 319 1.75911055E-08
  1 320 1.82983787E-08
  1 321 1.66611655E-08
  1 322 1.63541901E-08
  1 323 1.57175171E-08
  1 324 1.55855865E-08
  1 325 1.58328704E-08
  1 326 1.54774558E-08
  1 327 1.48029230E-08
  1 328 1.45213187E-08
  1 329 1.65630537E-08
  1 330 1.74558154E-08
  1 331 1.74385572E-08
  1 332 1.86873696E-08
  1 333 1.97995049E-08
  1 334 2.18008529E-08
  1 335 2.13224798E-08
  1 336 2.01072338E-08
  1 337 1.67811452E-08
  1 338 1.69506460E-08
  1 339 1.77208803E-08
  1 340 1.84991391E-08
  1 341 1.78648886E-08
  1 342 1.60740796E-08
  1 343 1.32685155E-08
  1 344 1.19296876E-08
  1 345 1.30597507E-08
  1 346 1.38778013E-08
  1 347 1.53055269E-08
  1 348 1.61716032E-08
  1 349 1.74458675E-08
  1 350 1.53659190E-08
  1 351 1.47636691E-08
  1 352 1.15047104E-08
  1 353 1.32741465E-08
  1 354 1.41317513E-08
  1 355 1.60270423E-08
  1 356 1.21074832E-08
  1 357 1.02319795E-08
  1 358 9.26848898E-09
  1 359 8.91722452E-09
  1 360 9.29534655E-09
  1 361 8.05790949E-09
  1 362 9.31053395E-09
  1 363 8.85710791E-09
  1 364 1.10649463E-08
  1 365 9.37389261E-09
  1 366 1.09235662E-08
  1 367 1.16607730E-08
  1 368 1.27227313E-08
  1 369 1.12864864E-08
  1 370 1.24772841E-08
  1 371 1.41415810E-08
  1 372 1.61562724E-08
  1 373 1.61165321E-08
  1 374 1.55484582E-08
  1 375 1.40114457E-08
  1 376 1.50573325E-08
  1 377 1.59850200E-08
  1 378 1.69192761E-08
  1 379 1.84658502E-08
  1 380 1.94538365E-08
  1 381 1.93017438E-08
  1 382 1.72304150E-08
  1 383 1.80544723E-08
  1 384 1.71853977E-08
  1 385 1.87329293E-08
  1 386 1.86874433E-08
  1 387 2.03018884E-08
  1 388 1.96074464E-08
  1 389 2.01041897E-08
  1 390 1.83518913E-08
  1 391 1.77973937E-08
  1 392 1.82805271E-08
  1 393 1.90692800E-08
  1 394 1.79431230E-08
  1 395 1.75151658E-08
  1 396 1.80160832E-08
  1 397 1.77237085E-08
  1 398 1.72479124E-08
  1 399 1.61026603E-08
  1 400 1.65774166E-08
  1 401 1.55905990E-08
  1 402 1.57223755E-08
  1 403 1.61442355E-08
  1 404 1.64594201E-08
  1 405 1.69390343E-08
  1 406 1.69708437E-08
  1 407 1.70533146E-08
  1 408 1.70750477E-08
  1 409 1.61404260E-08
  1 410 1.51621806E-08
  1 411 1.64402303E-08
  1 412 1.62187635E-08
  1 413 1.79082709E-08
  1 414 1.81458528E-08
  1 415 1.95515663E-08
  1 416 1.79088888E-08
  1 417 1.79922129E-08
  1 418 1.68692169E-08
  1 419 1.60951975E-08
  1 420 1.67294023E-08
  1 421 1.64782110E-08
  1 422 1.68163582E-08
  1 423 1.51257571E-08
  1 424 1.59750021E-08
  1 425 1.42196168E-08
  1 426 1.62705185E-08
  1 427 1.65562559E-08
  1 428 1.84568148E-08
  1 429 1.82495825E-08
  1 430 2.09844318E-08
  1 431 2.09245315E-08
  1 432 2.08509055E-08
  1 433 1.87773004E-08
  1 434 1.72262452E-08
  1 435 1.63532974E-08
  1 436 1.76743277E-08
  1 437 1.93541519E-08
  1 438 1.76347765E-08
  1 439 1.64816399E-08
  1 440 1.29703606E-08
  1 441 1.31956705E-08
  1 442 1.30253970E-08
  1 443 1.66979674E-08
  1 444 1.62234475E-08
  1 445 1.78436091E-08
  1 446 1.74889442E-08
  1 447 1.70337692E-08
  1 448 1.48546702E-08
  1 449 1.41791629E-08
  1 450 1.49053779E-08
  1 451 1.57412864E-08
  1 452 1.59645175E-08
  1 453 1.29929426E-08
  1 454 1.01531102E-08
  1 455 9.61972481E-09
  1 456 1.00185342E-08
  1 457 9.11355401E-09
  1 458 8.64520049E-09
  1 459 8.95577576E-09
  1 460 9.77977844E-09
  1 461 9.55422074E-09
  1 462 1.06754341E-08
  1 463 1.03535278E-08
  1 464 1.30506178E-08
  1 465 1.33204824E-08
  1 466 1.37667945E-08
  1 467 1.28778143E-08
  1 468 1.53541727E-08
  1 469 1.66298438E-08
  1 470 1.64824081E-08
  1 471 1.62927359E-08
  1 472 1.52937135E-08
  1 473 1.57772610E-08
  1 474 1.63233294E-08
  1 475 1.82926248E-08
  1 476 1.86886621E-08
  1 477 1.96791512E-08
  1 478 1.95060327E-08
  1 479 1.90798790E-08
  1 480 1.98417133E-08
  1 481 2.06317207E-08
  1 482 1.94508226E-08
  1 483 1.81344553E-08
  1 484 1.86538041E-08
  1 485 1.95599172E-08
  1 486 1.92347446E-08
  1 487 1.82085918E-08
  1 488 1.71357074E-08
  1 489 1.69484299E-08
  1 490 1.78007088E-08
  1 491 1.70519750E-08
  1 492 1.63660530E-08
  1 493 1.78137435E-08
  1 494 1.93039959E-08
  1 495 1.92232991E-08
  1 496 1.69533388E-08
  1 497 1.73267492E-08
  1 498 1.69425385E-08
  1 499 2.05502131E-08
  1 500 2.21817898E-08
  1 501 1.75788217E-08
  1 502 1.61685959E-08
  1 503 1.84015722E-08
  1 504 1.59100510E-08
  1 505 1.69765550E-08
  1 506 1.56427881E-08
  1 507 1.64668787E-08
  1 508 1.63752139E-08
  1 509 1.69583786E-08
  1 510 1.71059805E-08
  1 511 1.71021033E-08
  1 512 1.88050179E-08
  1 513 1.74606280E-08
  1 514 1.70686058E-08
  1 515 1.61202346E-08
  1 516 1.70251234E-08
  1 517 1.57347801E-08
  1 518 1.63556560E-08
  1 519 1.53301007E-08
  1 520 1.63076954E-08
  1 521 1.65037036E-08
  1 522 1.83747617E-08
  1 523 1.78457259E-08
  1 524 1.96192020E-08
  1 525 2.05531789E-08
  1 526 2.13438057E-08
  1 527 2.18826360E-08
  1 528 2.24063460E-08
  1 529 2.21746143E-08
  1 530 1.99365140E-08
  1 531 1.87816133E-08
  1 532 1.63775936E-08
  1 533 1.61056194E-08
  1 534 1.65139151E-08
  1 535 1.65248145E-08
  1 536 1.47847521E-08
  1 537 1.34379845E-08
  1 538 1.30821067E-08
  1 539 1.38063941E-08
  1 540 1.54146041E-08
  1 541 1.69928348E-08
  1 542 1.62515486E-08
  1 543 1.71191608E-08
  1 544 1.68622754E-08
  1 545 1.69873578E-08
  1 546 1.58948738E-08
  1 547 1.65893085E-08
  1 548 1.61489184E-08
  1 549 1.49148174E-08
  1 550 1.40301309E-08
  1 551 1.21685668E-08
  1 552 1.23411325E-08
  1 553 1.21371201E-08
  1 554 1.17931955E-08
  1 555 1.00000092E-08
  1 556 9.93133402E-09
  1 557 1.05101229E-08
  1 558 9.83087211E-09
  1 559 1.09942006E-08
  1 560 1.20440868E-08
  1 561 1.39198541E-08
  1 562 1.40863681E-08
  1 563 1.42237519E-08
  1 564 1.39099960E-08
  1 565 1.51618763E-08
  1 566 1.78528180E-08
  1 567 1.78672808E-08
  1 568 1.80853529E-08
  1 569 1.72330989E-08
  1 570 1.76343340E-08
  1 571 1.64901569E-08
  1 572 1.83280399E-08
  1 573 1.86821896E-08
  1 574 1.98218333E-08
  1 575 1.96059357E-08
  1 576 2.09896336E-08
  1 577 2.08045768E-08
  1 578 2.13333267E-08
  1 579 1.94936501E-08
  1 580 1.75690431E-08
  1 581 1.82683764E-08
  1 582 2.00795290E-08
  1 583 2.09253035E-08
  1 584 1.79006489E-08
  1 585 1.76964531E-08
  1 586 1.55274476E-08
  1 587 1.71234570E-08
  1 588 1.59962951E-08
  1 589 1.79588804E-08
  1 590 1.82811525E-08
  1 591 2.12132736E-08
  1 592 2.01535786E-08
  1 593 1.78480744E-08
  1 594 1.70049035E-08
  1 595 1.82821612E-08
  1 596 2.10127793E-08
  1 597 2.31364047E-08
  1 598 2.54044264E-08
  1 599 2.49583498E-08
  1 600 2.49227276E-08
  1 601 1.69603235E-08
  1 602 1.64361376E-08
  1 603 1.69874809E-08
  1 604 1.76309385E-08
  1 605 1.74775683E-08
  1 606 1.69412190E-08
  1 607 1.70518358E-08
  1 608 1.77432506E-08
  1 609 1.87654265E-08
  1 610 1.97131980E-08
  1 611 1.85249745E-08
  1 612 1.82166645E-08
  1 613 1.79601807E-08
  1 614 1.70017951E-08
  1 615 1.54029900E-08
  1 616 1.61086503E-08
  1 617 1.80532211E-08
  1 618 1.97426754E-08
  1 619 2.08907163E-08
  1 620 2.11209818E-08
  1 621 2.10865340E-08
  1 622 2.27071729E-08
  1 623 2.36679838E-08
  1 624 2.43055334E-08
  1 625 2.42925538E-08
  1 626 2.48358256E-08
  1 627 2.25395831E-08
  1 628 1.98083779E-08
  1 629 1.70681670E-08
  1 630 1.52213055E-08
  1 631 1.52375236E-08
  1 632 1.61657480E-08
  1 633 1.58319179E-08
  1 634 1.40748744E-08
  1 635 1.33015508E-08
  1 636 1.39951457E-08
  1 637 1.48551126E-08
  1 638 1.68564104E-08
  1 639 1.67011414E-08
  1 640 1.66547958E-08
  1 641 1.69058679E-08
  1 642 1.75406650E-08
  1 643 1.69642098E-08
  1 644 1.54569869E-08
  1 645 1.61544383E-08
  1 646 1.44159902E-08
  1 647 1.57734833E-08
  1 648 1.44416821E-08
  1 649 1.55378202E-08
  1 650 1.36312483E-08
  1 651 1.46515076E-08
  1 652 1.31925070E-08
  1 653 1.29868552E-08
  1 654 1.30800002E-08
  1 655 1.25578659E-08
  1 656 1.26493400E-08
  1 657 1.28389584E-08
  1 658 1.45718673E-08
  1 659 1.33154037E-08
  1 660 1.42171288E-08
  1 661 1.40895527E-08
  1 662 1.63205945E-08
  1 663 1.67553456E-08
  1 664 1.88160855E-08
  1 665 1.73277231E-08
  1 666 1.83729401E-08
  1 667 1.75554357E-08
  1 668 1.80802535E-08
  1 669 1.73118812E-08
  1 670 1.92321746E-08
  1 671 1.98021080E-08
  1 672 1.95274680E-08
  1 673 2.05120823E-08
  1 674 2.05749253E-08
  1 675 2.14697925E-08
  1 676 1.99491333E-08
  1 677 2.01560018E-08
  1 678 1.93699195E-08
  1 679 2.18129325E-08
  1 680 2.17151449E-08
  1 681 1.97803352E-08
  1 682 1.70650472E-08
  1 683 1.69100212E-08
  1 684 1.65373309E-08
  1 685 1.72650823E-08
  1 686 1.75398007E-08
  1 687 1.88482782E-08
  1 688 1.81944858E-08
  1 689 1.85295896E-08
  1 690 1.65700863E-08
  1 691 1.68911810E-08
  1 692 1.90617085E-08
  1 693 2.15012121E-08
  1 694 2.32914364E-08
  1 695 2.36474368E-08
  1 696 2.53137936E-08
  1 697 2.39773720E-08
  1 698 2.57251006E-08
  1 699 2.60899416E-08
  1 700 2.81072244E-08
  1 701 1.86629526E-08
  1 702 1.88186196E-08
  1 703 1.83613782E-08
  1 704 1.78799606E-08
  1 705 1.95409461E-08
  1 706 1.97391413E-08
  1 707 2.11653621E-08
  1 708 2.06249327E-08
  1 709 2.04277909E-08
  1 710 1.93886868E-08
  1 711 1.88751314E-08
  1 712 1.75827389E-08
  1 713 1.79699222E-08
  1 714 2.06741752E-08
  1 715 2.21534833E-08
  1 716 2.24596138E-08
  1 717 2.24952685E-08
  1 718 2.34062167E-08
  1 719 2.42470356E-08
  1 720 2.62540946E-08
  1 721 2.63852944E-08
  1 722 2.67765220E-08
  1 723 2.53384536E-08
  1 724 2.51788234E-08
  1 725 2.05759905E-08
  1 726 1.93348536E-08
  1 727 1.63889630E-08
  1 728 1.70085552E-08
  1 729 1.61006072E-08
  1 730 1.65994954E-08
  1 731 1.46673929E-08
  1 732 1.30340129E-08
  1 733 1.51392922E-08
  1 734 1.61970194E-08
  1 735 1.90899579E-08
  1 736 1.77790734E-08
  1 737 1.86068750E-08
  1 738 1.66773556E-08
  1 739 1.89678413E-08
  1 740 1.80767165E-08
  1 741 1.78976007E-08
  1 742 1.69856360E-08
  1 743 1.78515300E-08
  1 744 1.69846129E-08
  1 745 1.64636731E-08
  1 746 1.58182813E-08
  1 747 1.55056278E-08
  1 748 1.59240467E-08
  1 749 1.67043191E-08
  1 750 1.64103960E-08
  1 751 1.48791569E-08
  1 752 1.44595039E-08
  1 753 1.27406703E-08
  1 754 1.30768218E-08
  1 755 1.31457519E-08
  1 756 1.46992289E-08
  1 757 1.41070357E-08
  1 758 1.61335638E-08
  1 759 1.67243829E-08
  1 760 1.73310093E-08
  1 761 1.73817001E-08
  1 762 1.87429266E-08
  1 763 1.96152455E-08
  1 764 2.04233548E-08
  1 765 2.01032482E-08
  1 766 1.91300112E-08
  1 767 1.90537082E-08
  1 768 2.01173491E-08
  1 769 1.94573338E-08
  1 770 1.88518125E-08
  1 771 1.99232245E-08
  1 772 2.10671614E-08
  1 773 2.13875569E-08
  1 774 2.04540725E-08
  1 775 2.08849982E-08
  1 776 2.07996791E-08
  1 777 2.26145124E-08
  1 778 2.11034176E-08
  1 779 1.92465112E-08
  1 780 1.78478419E-08
  1 781 1.82841777E-08
  1 782 1.81473008E-08
  1 783 1.73685308E-08
  1 784 1.76209697E-08
  1 785 1.60714375E-08
  1 786 1.58931240E-08
  1 787 1.57822498E-08
  1 788 1.66741402E-08
  1 789 1.80312587E-08
  1 790 1.94865859E-08
  1 791 2.11596466E-08
  1 792 2.11986734E-08
  1 793 2.39672338E-08
  1 794 2.42427035E-08
  1 795 2.54783287E-08
  1 796 2.56995937E-08
  1 797 2.71944154E-08
  1 798 2.68540007E-08
  1 799 2.67247240E-08
  1 800 2.69287888E-08
  1 801 1.97564819E-08
  1 802 1.87150892E-08
  1 803 2.06249620E-08
  1 804 2.07294946E-08
  1 805 2.24007411E-08
  1 806 2.23451668E-08
  1 807 2.19117342E-08
  1 808 2.10961554E-08
  1 809 2.02887859E-08
  1 810 2.05790436E-08
  1 811 2.07414502E-08
  1 812 2.35670644E-08
  1 813 2.22748129E-08
  1 814 2.38387960E-08
  1 815 2.31419574E-08
  1 816 2.56309130E-08
  1 817 2.47695727E-08
  1 818 2.67284676E-08
  1 819 2.59651215E-08
  1 820 2.56832615E-08
  1 821 2.52001408E-08
  1 822 2.38051674E-08
  1 823 2.22219302E-08
  1 824 1.99554317E-08
  1 825 1.94175403E-08
  1 826 1.74263850E-08
  1 827 1.72243159E-08
  1 828 1.62931185E-08
  1 829 1.57267153E-08
  1 830 1.64845760E-08
  1 831 1.89027107E-08
  1 832 1.96648853E-08
  1 833 1.89600009E-08
  1 834 1.79153528E-08
  1 835 1.82848623E-08
  1 836 1.86581028E-08
  1 837 2.06140500E-08
  1 838 1.99637443E-08
  1 839 1.96109924E-08
  1 840 1.88486893E-08
  1 841 1.84025877E-08
  1 842 1.68019194E-08
  1 843 1.64962458E-08
  1 844 1.76137516E-08
  1 845 1.80122800E-08
  1 846 1.87683118E-08
  1 847 1.83535446E-08
  1 848 1.67485566E-08
  1 849 1.49247921E-08
  1 850 1.40667508E-08
  1 851 1.38322607E-08
  1 852 1.42004217E-08
  1 853 1.55412083E-08
  1 854 1.60550356E-08
  1 855 1.61680085E-08
  1 856 1.72084610E-08
  1 857 1.72008766E-08
  1 858 1.77253958E-08
  1 859 1.95932107E-08
  1 860 2.24015019E-08
  1 861 2.28045701E-08
  1 862 2.16691918E-08
  1 863 2.06358258E-08
  1 864 2.03317753E-08
  1 865 2.14379400E-08
  1 866 2.16724492E-08
  1 867 2.00433757E-08
  1 868 2.04960133E-08
  1 869 2.14550091E-08
  1 870 2.27764416E-08
  1 871 2.02533394E-08
  1 872 2.11413876E-08
  1 873 2.10607204E-08
  1 874 2.30335613E-08
  1 875 2.21587495E-08
  1 876 1.98794262E-08
  1 877 1.77697326E-08
  1 878 1.69405617E-08
  1 879 1.84661920E-08
  1 880 1.62956412E-08
  1 881 1.69866646E-08
  1 882 1.48834255E-08
  1 883 1.54741404E-08
  1 884 1.42102034E-08
  1 885 1.64663046E-08
  1 886 1.64730486E-08
  1 887 1.84030912E-08
  1 888 2.00221170E-08
  1 889 2.24431216E-08
  1 890 2.39606572E-08
  1 891 2.53917839E-08
  1 892 2.51688327E-08
  1 893 2.47140295E-08
  1 894 2.59709598E-08
  1 895 2.62066770E-08
  1 896 2.63223559E-08
  1 897 2.52948020E-08
  1 898 2.61383882E-08
  1 899 2.37927909E-08
  1 900 2.39069118E-08
  1 901 2.11855782E-08
  1 902 2.30328241E-08
  1 903 2.25519921E-08
  1 904 2.29791397E-08
  1 905 2.11932333E-08
  1 906 2.12192646E-08
  1 907 2.11554931E-08
  1 908 2.15946938E-08
  1 909 2.32468379E-08
  1 910 2.39544968E-08
  1 911 2.37747835E-08
  1 912 2.29122912E-08
  1 913 2.35170579E-08
  1 914 2.39979830E-08
  1 915 2.44197764E-08
  1 916 2.58930694E-08
  1 917 2.52749362E-08
  1 918 2.55401695E-08
  1 919 2.50340815E-08
  1 920 2.46984233E-08
  1 921 2.21119074E-08
  1 922 2.03807538E-08
  1 923 1.90667926E-08
  1 924 1.80911688E-08
  1 925 1.83429160E-08
  1 926 1.79256639E-08
  1 927 1.73623983E-08
  1 928 1.77251368E-08
  1 929 1.85210091E-08
  1 930 1.83155657E-08
  1 931 1.75444932E-08
  1 932 1.86224764E-08
  1 933 1.92583695E-08
  1 934 2.04061604E-08
  1 935 2.09624320E-08
  1 936 2.01422405E-08
  1 937 1.91326830E-08
  1 938 1.82744920E-08
  1 939 1.84586113E-08
  1 940 1.74291952E-08
  1 941 1.86265430E-08
  1 942 1.81232255E-08
  1 943 1.83896536E-08
  1 944 1.77513806E-08
  1 945 1.82724059E-08
  1 946 1.61478796E-08
  1 947 1.58491309E-08
  1 948 1.54049217E-08
  1 949 1.63631255E-08
  1 950 1.62912977E-08
  1 951 1.75817094E-08
  1 952 1.76110828E-08
  1 953 1.81577722E-08
  1 954 1.92632455E-08
  1 955 1.91749460E-08
  1 956 2.12980637E-08
  1 957 2.23749635E-08
  1 958 2.44759949E-08
  1 959 2.08520255E-08
  1 960 2.16719791E-08
  1 961 2.09042953E-08
  1 962 2.36066174E-08
  1 963 2.22191829E-08
  1 964 2.17042238E-08
  1 965 2.00311554E-08
  1 966 2.10677052E-08
  1 967 2.24265454E-08
  1 968 2.09544461E-08
  1 969 2.12673928E-08
  1 970 2.19592311E-08
  1 971 2.36913200E-08
  1 972 2.12713073E-08
  1 973 1.95120333E-08
  1 974 1.67982894E-08
  1 975 1.71205094E-08
  1 976 1.76508788E-08
  1 977 1.82985626E-08
  1 978 1.64520453E-08
  1 979 1.63510692E-08
  1 980 1.49584906E-08
  1 981 1.50870391E-08
  1 982 1.52170694E-08
  1 983 1.77855165E-08
  1 984 1.86088590E-08
  1 985 2.08113307E-08
  1 986 2.31620926E-08
  1 987 2.43181193E-08
  1 988 2.47293717E-08
  1 989 2.41056641E-08
  1 990 2.48281221E-08
  1 991 2.52319823E-08
  1 992 2.72882168E-08
  1 993 2.63295092E-08
  1 994 2.55500715E-08
  1 995 2.46477931E-08
  1 996 2.40200114E-08
  1 997 2.15543016E-08
  1 998 2.15527474E-08
  1 999 2.29559194E-08
  1 1000 2.55631913E-08
  1 1001 2.32879622E-08
  1 1002 2.27399273E-08
  1 1003 2.25158865E-08
  1 1004 2.28599924E-08
  1 1005 2.35757660E-08
  1 1006 2.43299860E-08
  1 1007 2.43403726E-08
  1 1008 2.35506523E-08
  1 1009 2.16890616E-08
  1 1010 2.14862384E-08
  1 1011 2.28567755E-08
  1 1012 2.34672183E-08
  1 1013 2.40045457E-08
  1 1014 2.43214831E-08
  1 1015 2.38735900E-08
  1 1016 2.44663695E-08
  1 1017 2.42177762E-08
  1 1018 2.39187533E-08
  1 1019 2.03052415E-08
  1 1020 2.04982531E-08
  1 1021 1.88968917E-08
  1 1022 1.99459215E-08
  1 1023 1.82045194E-08
  1 1024 1.76429303E-08
  1 1025 1.58663289E-08
  1 1026 1.68828912E-08
  1 1027 1.80243360E-08
  1 1028 1.72054094E-08
  1 1029 1.73387209E-08
  1 1030 1.72086877E-08
  1 1031 1.87724248E-08
  1 1032 1.85720892E-08
  1 1033 1.99475097E-08
  1 1034 1.80276462E-08
  1 1035 1.86295232E-08
  1 1036 1.78067175E-08
  1 1037 1.87949887E-08
  1 1038 1.64848151E-08
  1 1039 1.77670802E-08
  1 1040 1.73710071E-08
  1 1041 1.92893248E-08
  1 1042 1.94436631E-08
  1 1043 1.88747722E-08
  1 1044 1.71614128E-08
  1 1045 1.65007951E-08
  1 1046 1.85500906E-08
  1 1047 1.79087297E-08
  1 1048 1.97613842E-08
  1 1049 1.93250730E-08
  1 1050 2.07024453E-08
  1 1051 1.93473165E-08
  1 1052 2.01415520E-08
  1 1053 1.99956877E-08
  1 1054 2.15959210E-08
  1 1055 2.26160292E-08
  1 1056 2.14514295E-08
  1 1057 1.98531174E-08
  1 1058 2.07198685E-08
  1 1059 2.19059890E-08
  1 1060 2.18187587E-08
  1 1061 2.03742966E-08
  1 1062 2.04553969E-08
  1 1063 2.05315028E-08
  1 1064 2.19474770E-08
  1 1065 2.20840018E-08
  1 1066 2.14599489E-08
  1 1067 2.22343985E-08
  1 1068 2.21366211E-08
  1 1069 2.09921948E-08
  1 1070 1.78971280E-08
  1 1071 1.79043895E-08
  1 1072 1.70906450E-08
  1 1073 1.75486442E-08
  1 1074 1.73525737E-08
  1 1075 1.71483096E-08
  1 1076 1.63528245E-08
  1 1077 1.62459735E-08
  1 1078 1.65700420E-08
  1 1079 1.72750781E-08
  1 1080 1.92841272E-08
  1 1081 2.07009587E-08
  1 1082 2.10587496E-08
  1 1083 2.25300899E-08
  1 1084 2.41077366E-08
  1 1085 2.42892905E-08
  1 1086 2.37958556E-08
  1 1087 2.44377010E-08
  1 1088 2.50773676E-08
  1 1089 2.53603512E-08
  1 1090 2.49885222E-08
  1 1091 2.41875737E-08
  1 1092 2.36229950E-08
  1 1093 2.38924051E-08
  1 1094 2.19637168E-08
  1 1095 2.11465350E-08
  1 1096 2.22537212E-08
  1 1097 2.48071210E-08
  1 1098 2.42595128E-08
  1 1099 2.28552925E-08
  1 1100 2.29393732E-08
  1 1101 2.54773983E-08
  1 1102 2.52987837E-08
  1 1103 2.62318902E-08
  1 1104 2.56141330E-08
  1 1105 2.43338897E-08
  1 1106 2.43690713E-08
  1 1107 2.24356732E-08
  1 1108 2.41503847E-08
  1 1109 2.25671904E-08
  1 1110 2.32560807E-08
  1 1111 2.13896429E-08
  1 1112 2.31873221E-08
  1 1113 2.22335532E-08
  1 1114 2.32708216E-08
  1 1115 2.18106021E-08
  1 1116 1.95644158E-08
  1 1117 1.69730500E-08
  1 1118 1.73604195E-08
  1 1119 1.80896562E-08
  1 1120 1.76031127E-08
  1 1121 1.69197150E-08
  1 1122 1.57607507E-08
  1 1123 1.67070502E-08
  1 1124 1.74591058E-08
  1 1125 1.83070513E-08
  1 1126 1.60434519E-08
  1 1127 1.72499520E-08
  1 1128 1.81324488E-08
  1 1129 2.00249702E-08
  1 1130 1.94432668E-08
  1 1131 1.93688969E-08
  1 1132 1.79319981E-08
  1 1133 1.73743297E-08
  1 1134 1.72313985E-08
  1 1135 1.61293408E-08
  1 1136 1.65715710E-08
  1 1137 1.84800215E-08
  1 1138 2.02735648E-08
  1 1139 1.98127338E-08
  1 1140 1.82567101E-08
  1 1141 1.71076109E-08
  1 1142 1.69651443E-08
  1 1143 1.96774065E-08
  1 1144 2.11596288E-08
  1 1145 2.14088344E-08
  1 1146 2.12621711E-08
  1 1147 2.09942280E-08
  1 1148 2.01075637E-08
  1 1149 1.90374650E-08
  1 1150 2.07385035E-08
  1 1151 2.17132994E-08
  1 1152 2.31001071E-08
  1 1153 2.16535102E-08
  1 1154 1.92888502E-08
  1 1155 1.80143985E-08
  1 1156 1.92118984E-08
  1 1157 2.03130826E-08
  1 1158 1.95861673E-08
  1 1159 1.99037258E-08
  1 1160 2.01416631E-08
  1 1161 2.03007843E-08
  1 1162 2.10239556E-08
  1 1163 2.08604296E-08
  1 1164 2.12680075E-08
  1 1165 2.05091754E-08
  1 1166 2.10160350E-08
  1 1167 1.89660490E-08
  1 1168 1.89184440E-08
  1 1169 1.78326771E-08
  1 1170 1.67889083E-08
  1 1171 1.61229348E-08
  1 1172 1.70472602E-08
  1 1173 1.78839916E-08
  1 1174 1.73198638E-08
  1 1175 1.84860816E-08
  1 1176 1.88646052E-08
  1 1177 2.03553652E-08
  1 1178 2.00887981E-08
  1 1179 2.09047398E-08
  1 1180 2.03896469E-08
  1 1181 2.34467561E-08
  1 1182 2.32076598E-08
  1 1183 2.33548437E-08
  1 1184 2.14047067E-08
  1 1185 2.29567631E-08
  1 1186 2.18328555E-08
  1 1187 2.22672048E-08
  1 1188 2.26815241E-08
  1 1189 2.31354815E-08
  1 1190 2.38545420E-08
  1 1191 2.20043049E-08
  1 1192 2.21167587E-08
  1 1193 2.10302420E-08
  1 1194 2.46619933E-08
  1 1195 2.32305178E-08
  1 1196 2.30462500E-08
  1 1197 2.22361770E-08
  1 1198 2.51932968E-08
  1 1199 2.61515840E-08
  1 1200 2.66427070E-08
  1 1201 2.67195345E-08
  1 1202 2.64420082E-08
  1 1203 2.61183142E-08
  1 1204 2.52917188E-08
  1 1205 2.32212972E-08
  1 1206 2.20446477E-08
  1 1207 2.15799105E-08
  1 1208 2.17353584E-08
  1 1209 2.20662406E-08
  1 1210 2.24233911E-08
  1 1211 2.09495464E-08
  1 1212 1.92701550E-08
  1 1213 1.66158462E-08
  1 1214 1.39864159E-08
  1 1215 1.40207134E-08
  1 1216 1.61475824E-08
  1 1217 1.71176656E-08
  1 1218 1.62200315E-08
  1 1219 1.57573484E-08
  1 1220 1.64778931E-08
  1 1221 1.70892214E-08
  1 1222 1.83134676E-08
  1 1223 1.75248519E-08
  1 1224 1.80994133E-08
  1 1225 1.95752679E-08
  1 1226 2.11819779E-08
  1 1227 2.05379681E-08
  1 1228 1.92721226E-08
  1 1229 1.88019600E-08
  1 1230 1.69220719E-08
  1 1231 1.69785420E-08
  1 1232 1.68565397E-08
  1 1233 1.84346845E-08
  1 1234 1.98315022E-08
  1 1235 2.13699957E-08
  1 1236 1.99932885E-08
  1 1237 1.78184829E-08
  1 1238 1.74258679E-08
  1 1239 1.87567198E-08
  1 1240 2.04246467E-08
  1 1241 2.25068141E-08
  1 1242 2.15182503E-08
  1 1243 2.08595192E-08
  1 1244 1.92537332E-08
  1 1245 1.99810761E-08
  1 1246 1.88814142E-08
  1 1247 2.10680408E-08
  1 1248 2.31522367E-08
  1 1249 2.37205545E-08
  1 1250 2.27029150E-08
  1 1251 1.96206029E-08
  1 1252 1.92835468E-08
  1 1253 1.88908912E-08
  1 1254 2.23998997E-08
  1 1255 2.08368519E-08
  1 1256 2.10153216E-08
  1 1257 1.93826851E-08
  1 1258 2.07363870E-08
  1 1259 2.01049374E-08
  1 1260 2.15888197E-08
  1 1261 2.09279910E-08
  1 1262 2.04365841E-08
  1 1263 2.00234734E-08
  1 1264 1.99764741E-08
  1 1265 1.89850896E-08
  1 1266 1.72510370E-08
  1 1267 1.65543670E-08
  1 1268 1.49600519E-08
  1 1269 1.68959567E-08
  1 1270 1.69446301E-08
  1 1271 1.81188934E-08
  1 1272 1.67431037E-08
  1 1273 1.98392669E-08
  1 1274 1.97687720E-08
  1 1275 2.08035772E-08
  1 1276 2.00447933E-08
  1 1277 2.12151509E-08
  1 1278 2.21474328E-08
  1 1279 2.28949952E-08
  1 1280 2.20524397E-08
  1 1281 1.99461101E-08
  1 1282 2.05900192E-08
  1 1283 2.08881718E-08
  1 1284 2.08749653E-08
  1 1285 2.05873649E-08
  1 1286 2.15373433E-08
  1 1287 2.13892105E-08
  1 1288 2.11358216E-08
  1 1289 2.12327613E-08