# File generated by Flopy version 3.5.0 on 03/06/2024 at 10:48:00.
BEGIN options
END options

BEGIN griddata
  icelltype
    CONSTANT  0
  k
    INTERNAL  FACTOR  1.0
         0.00121361       0.00104189       0.00105217  9.24523117E-04  9.34340492E-04  7.65090501E-04  5.74427805E-04  6.60529312E-04  7.31215234E-04  8.01767274E-04  9.76341058E-04       0.00122420       0.00116118  7.86210603E-04  7.17517449E-04  6.67632475E-04  5.91515450E-04  6.16283129E-04  6.20970297E-04  5.83471597E-04
    4.68555303E-04  4.52343611E-04  4.44760517E-04  3.97161501E-04  3.92268414E-04  3.63851447E-04  4.05373730E-04  3.87500394E-04  3.22441068E-04  3.39637531E-04  3.07167866E-04  2.63376248E-04  2.16077480E-04  2.31075869E-04  3.06834843E-04  3.14387255E-04  3.92966030E-04  4.21518551E-04  3.66158789E-04  3.07925865E-04
    3.04256048E-04  4.41109905E-04  4.76410556E-04  5.63135872E-04  7.53832865E-04  8.73020381E-04       0.00104639       0.00109049       0.00131314       0.00111679  8.50512008E-04  9.49218830E-04       0.00106381       0.00138275       0.00148062       0.00146140       0.00118060  7.26236211E-04  6.52110696E-04  5.57107248E-04
    4.79277822E-04  3.98150392E-04  3.15565744E-04  2.98236988E-04  2.53595374E-04  2.80555126E-04  2.99002126E-04  2.53242840E-04  2.29761892E-04  2.00979107E-04  2.24331116E-04  2.27788403E-04  2.40964778E-04  2.86161848E-04  2.54725621E-04  2.59872329E-04  2.78906996E-04  3.42250650E-04  3.41638809E-04  2.70393274E-04
    2.77249274E-04  2.21106245E-04  1.81812216E-04  1.81070855E-04  2.03131547E-04  2.21374328E-04  1.89302588E-04  2.62562971E-04  3.78412316E-04  4.54317025E-04  6.18702473E-04  7.69864446E-04  9.03234870E-04  7.12929784E-04  7.60941315E-04       0.00108743       0.00109539       0.00116796       0.00121050       0.00128913
    7.44110951E-04  8.99667735E-04  9.81302997E-04  8.72806792E-04  9.73143239E-04  8.29695742E-04  5.98879376E-04  6.32550914E-04  6.91128640E-04  7.49859126E-04  8.50650031E-04       0.00115250       0.00125962  8.99701520E-04  7.87819106E-04  7.11299259E-04  6.14292472E-04  6.05043969E-04  6.25459992E-04  6.14228928E-04
    5.07536010E-04  4.87558513E-04  4.75918777E-04  4.26195057E-04  4.08402921E-04  3.59075341E-04  4.02850292E-04  3.99103905E-04  3.49699098E-04  3.65209485E-04  3.50656751E-04  3.21735450E-04  2.39667975E-04  2.31618435E-04  2.80703924E-04  2.92759699E-04  3.82024573E-04  4.47296848E-04  4.47907291E-04  3.49658618E-04
    2.99340063E-04  3.84892976E-04  4.08910497E-04  5.08978474E-04  6.82700100E-04  8.77731886E-04       0.00109021       0.00112766       0.00142778       0.00123131  9.32153216E-04  9.07311072E-04  9.46490030E-04       0.00125948       0.00141666       0.00161416       0.00136484  8.27846796E-04  6.83181347E-04  5.58946608E-04
    5.24073485E-04  4.54381197E-04  3.82042690E-04  3.51547402E-04  2.76187529E-04  2.94235980E-04  3.10735230E-04  2.86951393E-04  2.56641019E-04  2.17553268E-04  2.37482275E-04  2.28600513E-04  2.47388622E-04  2.95571869E-04  2.73845246E-04  2.67249543E-04  2.63624407E-04  3.45193911E-04  3.62325389E-04  2.96300267E-04
    2.93377449E-04  2.25351189E-04  1.75766979E-04  1.51969389E-04  1.78803772E-04  2.12681404E-04  1.80153213E-04  2.29620144E-04  3.05763753E-04  3.72518266E-04  4.70975378E-04  6.14442279E-04  8.37026264E-04  6.83125484E-04  7.14144058E-04  9.98969655E-04       0.00111717       0.00117687       0.00112689       0.00128816
    6.40533857E-04  7.92909837E-04  8.92431532E-04  7.84886084E-04  9.38863182E-04  8.63167983E-04  6.36711050E-04  6.14822050E-04  6.64914464E-04  7.21831148E-04  7.37678843E-04       0.00100582       0.00121843  9.65812692E-04  8.41840810E-04  7.53333348E-04  6.51025158E-04  5.95586046E-04  6.15348578E-04  6.09668303E-04
    5.16194157E-04  4.99815390E-04  4.89758430E-04  4.57358514E-04  4.34042091E-04  3.64256252E-04  3.94613440E-04  3.89421833E-04  3.56190702E-04  3.62170934E-04  3.71803008E-04  3.84679265E-04  2.80687827E-04  2.53861267E-04  2.71796885E-04  2.71465192E-04  3.38941334E-04  4.16163658E-04  5.00989727E-04  4.04849471E-04
    3.26055111E-04  3.65619616E-04  3.60878968E-04  4.42223131E-04  5.71804902E-04  8.12143044E-04       0.00107161       0.00116313       0.00157089       0.00141186       0.00109204  9.19936886E-04  8.58861181E-04       0.00107572       0.00123356       0.00166351       0.00159189       0.00103409  7.79401223E-04  5.76488098E-04
    5.36654091E-04  4.66620342E-04  4.32271174E-04  4.12016246E-04  3.16870087E-04  3.23944138E-04  3.29274214E-04  3.23635037E-04  2.79880752E-04  2.31027818E-04  2.46936830E-04  2.27052897E-04  2.52038823E-04  3.07718361E-04  3.09706339E-04  2.87417754E-04  2.48450082E-04  3.20133920E-04  3.46862995E-04  3.08701706E-04
    3.12165338E-04  2.48252927E-04  1.88063476E-04  1.36454479E-04  1.52767716E-04  1.89717375E-04  1.68838055E-04  2.05638213E-04  2.61497423E-04  3.30111860E-04  3.78702741E-04  4.87824268E-04  7.27611215E-04  6.26923182E-04  6.41490454E-04  8.60260109E-04       0.00111461       0.00124471       0.00114633       0.00134429
    5.85527065E-04  7.39838357E-04  8.50302329E-04  7.30721286E-04  8.81713395E-04  8.60938163E-04  6.75123687E-04  5.98297244E-04  6.47497678E-04  7.29100585E-04  6.83597137E-04  8.89001932E-04       0.00112525  9.87250653E-04  8.69989856E-04  7.88437323E-04  7.09744261E-04  6.11935733E-04  6.20744538E-04  6.16099804E-04
    5.21063612E-04  5.00326887E-04  4.83896260E-04  4.75461151E-04  4.58848413E-04  3.81996754E-04  3.99041788E-04  3.85819417E-04  3.62040395E-04  3.43947238E-04  3.60341515E-04  4.15564036E-04  3.22743218E-04  2.93487465E-04  2.87511653E-04  2.73716078E-04  3.05394685E-04  3.58854556E-04  4.88766413E-04  4.31823221E-04
    3.60390650E-04  3.71317017E-04  3.45859435E-04  4.01996576E-04  4.79862851E-04  7.13220277E-04  9.67573741E-04       0.00111937       0.00162107       0.00159694       0.00135125       0.00103485  8.68430727E-04  9.41232125E-04       0.00100437       0.00150108       0.00168160       0.00130509  9.69969402E-04  6.64619145E-04
    5.73086540E-04  4.57782913E-04  4.46122215E-04  4.44039784E-04  3.55679901E-04  3.58988448E-04  3.58571068E-04  3.79118375E-04  3.16058522E-04  2.50936310E-04  2.54938839E-04  2.19973934E-04  2.42797710E-04  3.02767184E-04  3.55229354E-04  3.34387925E-04  2.55780054E-04  2.99131893E-04  3.09614280E-04  2.91129041E-04
    3.01801590E-04  2.70092743E-04  2.16051806E-04  1.37509770E-04  1.39009305E-04  1.67336554E-04  1.55758429E-04  1.79972709E-04  2.21125152E-04  2.97756861E-04  3.20312129E-04  4.03350564E-04  6.32456469E-04  5.85899128E-04  5.75818170E-04  6.92983521E-04       0.00100546       0.00124307       0.00120081       0.00148519
    5.34712553E-04  6.96992761E-04  8.39575744E-04  7.34293124E-04  8.66388289E-04  8.76950370E-04  7.34670454E-04  5.88472963E-04  6.26550409E-04  7.41551455E-04  6.79991296E-04  8.40393938E-04       0.00107351       0.00102820  9.03670721E-04  8.26944712E-04  7.84002703E-04  6.63142679E-04  6.62136140E-04  6.63339021E-04
    5.60260318E-04  5.22595227E-04  4.84738559E-04  4.85910231E-04  4.71786804E-04  4.02393497E-04  4.08273978E-04  3.93504238E-04  3.86392114E-04  3.39642727E-04  3.44202546E-04  4.07706176E-04  3.42241222E-04  3.27457883E-04  3.12497637E-04  3.00827106E-04  3.02152247E-04  3.22268874E-04  4.47598357E-04  4.19155276E-04
    3.75235787E-04  3.71706748E-04  3.45135345E-04  3.85929331E-04  4.28380770E-04  6.43520180E-04  8.56742100E-04       0.00102404       0.00151453       0.00164524       0.00160441       0.00122791       0.00100425  9.35787112E-04  8.63491673E-04       0.00125740       0.00154811       0.00148903       0.00119125  8.35943956E-04
    6.80698981E-04  4.76090728E-04  4.52646768E-04  4.47198878E-04  3.77289183E-04  3.77153302E-04  3.78837177E-04  4.45346512E-04  3.75512847E-04  2.94304364E-04  2.79432040E-04  2.21758174E-04  2.26282889E-04  2.69774832E-04  3.74550618E-04  3.92933817E-04  2.92209085E-04  3.07746961E-04  2.88219402E-04  2.66287063E-04
    2.62835197E-04  2.66127522E-04  2.42769747E-04  1.49146286E-04  1.38446112E-04  1.56397752E-04  1.51047342E-04  1.60992252E-04  1.85396799E-04  2.60726001E-04  2.69448452E-04  3.34243668E-04  5.44849389E-04  5.75201850E-04  5.58860498E-04  5.74826679E-04  8.45926698E-04       0.00110710       0.00116676       0.00158245
    4.85244713E-04  6.32441533E-04  8.02975485E-04  7.58487339E-04  8.87444983E-04  9.45108885E-04  8.64391756E-04  6.20180860E-04  6.16897083E-04  7.35329250E-04  6.85629884E-04  8.24680491E-04       0.00106361       0.00112966  9.91353586E-04  9.01807599E-04  8.77543304E-04  7.41271287E-04  7.37356260E-04  7.49768124E-04
    6.46628034E-04  5.89058474E-04  5.20037653E-04  5.16017425E-04  4.87370150E-04  4.23728882E-04  4.08886995E-04  3.92625935E-04  4.17351505E-04  3.56995157E-04  3.50904765E-04  3.97886334E-04  3.45414183E-04  3.38230912E-04  3.20766934E-04  3.30539634E-04  3.18278903E-04  3.17177021E-04  4.24308592E-04  4.01726382E-04
    3.75476779E-04  3.55688676E-04  3.37303643E-04  3.68183918E-04  3.94878262E-04  6.06374070E-04  7.93283563E-04  9.64244585E-04       0.00136467       0.00155175       0.00169432       0.00137152       0.00121401       0.00105624  8.59643645E-04       0.00111188       0.00135489       0.00151558       0.00131853       0.00103042
    8.54714658E-04  5.43264312E-04  4.85203458E-04  4.54841838E-04  3.96002644E-04  3.78430220E-04  3.74953770E-04  4.85486308E-04  4.38730515E-04  3.63048913E-04  3.33012248E-04  2.51812574E-04  2.25101270E-04  2.31893850E-04  3.48769761E-04  4.18434414E-04  3.38592763E-04  3.41706658E-04  2.98594584E-04  2.63093077E-04
    2.28133292E-04  2.41475654E-04  2.50534026E-04  1.61574002E-04  1.43287999E-04  1.53359315E-04  1.58014119E-04  1.56886718E-04  1.65833111E-04  2.30774603E-04  2.25588485E-04  2.66984971E-04  4.34770824E-04  5.55323656E-04  5.85135015E-04  5.35643432E-04  7.43861996E-04  9.40604848E-04       0.00103206       0.00148219
    4.65032400E-04  5.70809200E-04  7.29511135E-04  7.54597926E-04  8.81059181E-04       0.00101909       0.00108139  7.31717084E-04  6.52452569E-04  7.35778984E-04  6.83834592E-04  7.90658121E-04       0.00102834       0.00124465       0.00113560       0.00103020       0.00101167  8.46709670E-04  8.31227182E-04  8.51092950E-04
    7.60802776E-04  6.87717853E-04  5.91236514E-04  5.80379083E-04  5.30004427E-04  4.63279125E-04  4.12691586E-04  3.75856264E-04  4.20993003E-04  3.72781046E-04  3.75971906E-04  4.09702556E-04  3.60113016E-04  3.41780252E-04  3.10610704E-04  3.38033513E-04  3.25739651E-04  3.23942672E-04  4.20551070E-04  4.04113162E-04
    3.86751439E-04  3.43508827E-04  3.27052195E-04  3.39183443E-04  3.54041968E-04  5.59521593E-04  7.48209339E-04  9.59324487E-04       0.00128678       0.00147138       0.00165623       0.00137497       0.00136150       0.00121285  9.58712597E-04       0.00110165       0.00126494       0.00151077       0.00134602       0.00116993
         0.00103097  6.42445413E-04  5.41972681E-04  4.81415685E-04  4.34480600E-04  3.87655890E-04  3.64880634E-04  4.85333277E-04  4.71223362E-04  4.28860807E-04  4.00379786E-04  3.17879004E-04  2.56769557E-04  2.17103529E-04  3.11010416E-04  3.97569636E-04  3.63019534E-04  3.69268316E-04  3.26803452E-04  2.87632209E-04
    2.16971255E-04  2.21884473E-04  2.45430583E-04  1.71260646E-04  1.46658689E-04  1.48677233E-04  1.68130089E-04  1.63981250E-04  1.64708320E-04  2.22047224E-04  2.03647785E-04  2.16695669E-04  3.17900873E-04  4.80382482E-04  5.94939921E-04  5.44916762E-04  7.27628539E-04  8.54492687E-04  9.13760990E-04       0.00124987
    4.85455456E-04  5.48308842E-04  6.68629150E-04  7.32434535E-04  8.18506233E-04       0.00100971       0.00129605  9.28720431E-04  7.58618083E-04  7.75768452E-04  6.98633634E-04  7.38995145E-04  9.28100566E-04       0.00126274       0.00125876       0.00117581       0.00117493  9.81236703E-04  9.33571855E-04  9.38864347E-04
    8.69116185E-04  7.78076599E-04  6.66568122E-04  6.55154568E-04  5.94891366E-04  5.31772926E-04  4.41421785E-04  3.66830552E-04  3.93899871E-04  3.59091881E-04  3.85493505E-04  4.24258385E-04  3.93996899E-04  3.60071850E-04  3.04713618E-04  3.29718880E-04  3.12147590E-04  3.17923813E-04  4.07452786E-04  4.13166387E-04
    4.13849350E-04  3.52060674E-04  3.35219766E-04  3.19001737E-04  3.12349447E-04  4.83422385E-04  6.65837281E-04  9.38463731E-04       0.00125368       0.00149191       0.00166137       0.00133028       0.00138880       0.00128925       0.00107237       0.00114968       0.00128107       0.00159280       0.00139036       0.00127777
         0.00116990  7.45208796E-04  5.93577064E-04  5.04265035E-04  4.86325040E-04  4.17059183E-04  3.73254512E-04  4.78500075E-04  4.78038650E-04  4.64051979E-04  4.39851727E-04  3.97947678E-04  3.21619972E-04  2.33393112E-04  2.97020475E-04  3.70306821E-04  3.66189894E-04  3.67420903E-04  3.43225855E-04  3.22296196E-04
    2.24395812E-04  2.17723058E-04  2.43764295E-04  1.85676396E-04  1.51844591E-04  1.41092766E-04  1.70243066E-04  1.69054319E-04  1.71569491E-04  2.31024627E-04  2.10019179E-04  1.98882961E-04  2.36271278E-04  3.74830884E-04  5.35160453E-04  5.40254617E-04  7.44040230E-04  8.51675009E-04  8.88613556E-04       0.00106270
    5.20705438E-04  5.62731149E-04  6.54918148E-04  7.47193530E-04  7.58032383E-04  9.19329143E-04       0.00136004       0.00113896  9.37290129E-04  8.66900402E-04  7.58483838E-04  7.10035063E-04  8.04034163E-04       0.00115144       0.00126307       0.00126310       0.00130497       0.00112267       0.00104184  9.97944500E-04
    9.51126332E-04  8.36011377E-04  7.10167252E-04  6.93217152E-04  6.40710919E-04  6.09611768E-04  4.95050933E-04  3.85700771E-04  3.71064938E-04  3.25532614E-04  3.57376770E-04  4.03350715E-04  4.19247380E-04  3.87637126E-04  3.14143697E-04  3.27409558E-04  2.93724520E-04  2.98821440E-04  3.70444084E-04  4.01643360E-04
    4.30216339E-04  3.69853561E-04  3.67403139E-04  3.26482156E-04  2.93734532E-04  4.11977429E-04  5.54147005E-04  8.35216446E-04       0.00114585       0.00152890       0.00176309       0.00136491       0.00139814       0.00129276       0.00113718       0.00115489       0.00129993       0.00172457       0.00150804       0.00143176
         0.00132055  8.69109665E-04  6.32657809E-04  4.99132130E-04  5.13352117E-04  4.44632077E-04  3.96965877E-04  4.90272218E-04  4.97458477E-04  4.88812351E-04  4.40362918E-04  4.48057775E-04  3.91662303E-04  2.70502879E-04  3.09953138E-04  3.67007329E-04  3.79683004E-04  3.55750469E-04  3.39750334E-04  3.43565160E-04
    2.34964845E-04  2.19729186E-04  2.45292805E-04  2.10513797E-04  1.67207273E-04  1.39288790E-04  1.66999384E-04  1.64668659E-04  1.71504896E-04  2.36100906E-04  2.34335334E-04  2.13444501E-04  2.01863586E-04  2.96718323E-04  4.38676476E-04  4.89489609E-04  7.14602956E-04  8.55920246E-04  9.32210257E-04  9.76466289E-04
    5.26220841E-04  5.69963890E-04  6.66860401E-04  8.28413214E-04  7.69287130E-04  8.50821451E-04       0.00128583       0.00125910       0.00113673  9.97125352E-04  8.82218533E-04  7.39824029E-04  7.19348314E-04       0.00100357       0.00116395       0.00125849       0.00134660       0.00123215       0.00115306       0.00104229
         0.00101542  8.80238081E-04  7.30155520E-04  6.84889066E-04  6.34821162E-04  6.52714068E-04  5.49916871E-04  4.31274700E-04  3.77210401E-04  3.03810565E-04  3.14954179E-04  3.46911287E-04  4.02400053E-04  3.93351090E-04  3.26325876E-04  3.34700721E-04  2.85383560E-04  2.84004535E-04  3.29238868E-04  3.71128783E-04
    4.13899234E-04  3.68353936E-04  3.99831504E-04  3.55718025E-04  3.08143109E-04  3.79819489E-04  4.72487191E-04  6.96150678E-04  9.32154520E-04       0.00141876       0.00181809       0.00147962       0.00147875       0.00132678       0.00119884       0.00111277       0.00124709       0.00176670       0.00162602       0.00162378
         0.00152355       0.00107588  7.02839790E-04  4.85109214E-04  4.99081877E-04  4.37466644E-04  4.05463961E-04  4.98949155E-04  5.42208549E-04  5.42650014E-04  4.41822613E-04  4.63805194E-04  4.32632456E-04  3.06306900E-04  3.27735712E-04  3.79006950E-04  4.19587458E-04  3.63922660E-04  3.39755990E-04  3.53912690E-04
    2.42386080E-04  2.17029742E-04  2.36247968E-04  2.36368177E-04  1.93637733E-04  1.49670972E-04  1.71017690E-04  1.60030670E-04  1.63460881E-04  2.19628708E-04  2.50355426E-04  2.44895395E-04  2.01000574E-04  2.63717358E-04  3.67047659E-04  4.27294210E-04  6.30020051E-04  7.99386640E-04  9.59036276E-04  9.32127531E-04
    4.99055677E-04  5.32839204E-04  6.43772818E-04  9.27685419E-04  8.65197867E-04  8.79691725E-04       0.00122731       0.00131197       0.00129936       0.00112671       0.00106004  8.40697097E-04  7.06958401E-04  9.08502179E-04       0.00106458       0.00122365       0.00132833       0.00129724       0.00124748       0.00109205
         0.00108673  9.45602445E-04  7.71922801E-04  6.76587352E-04  6.04745644E-04  6.42960692E-04  5.75276574E-04  4.85248585E-04  4.11283462E-04  3.10792191E-04  2.90537999E-04  2.93378588E-04  3.55627161E-04  3.61457715E-04  3.19882581E-04  3.34135297E-04  2.82847646E-04  2.79640220E-04  3.03445637E-04  3.49305253E-04
    3.85049946E-04  3.43362646E-04  4.00182836E-04  3.76061320E-04  3.41476972E-04  3.86286479E-04  4.51136844E-04  6.10456582E-04  7.26548550E-04       0.00116184       0.00165464       0.00154138       0.00157974       0.00142795       0.00133937       0.00110869       0.00117582       0.00168116       0.00164712       0.00173733
         0.00169550       0.00138467  8.59574439E-04  5.07977977E-04  4.82013735E-04  4.05042070E-04  3.80471272E-04  4.62554440E-04  5.72187608E-04  6.28196619E-04  4.77982922E-04  4.86471521E-04  4.54291087E-04  3.31897475E-04  3.29669484E-04  3.77635448E-04  4.65856891E-04  3.94573224E-04  3.61990606E-04  3.76098546E-04
    2.59420435E-04  2.15548133E-04  2.15359827E-04  2.44917664E-04  2.17734915E-04  1.68926121E-04  1.87968372E-04  1.67779586E-04  1.61741707E-04  1.93650759E-04  2.41684802E-04  2.65781934E-04  2.12212658E-04  2.59567211E-04  3.34517930E-04  3.93689480E-04  5.50061823E-04  7.07642333E-04  9.21488744E-04  8.62100946E-04
    4.85738285E-04  4.79567309E-04  5.68020135E-04  9.38846186E-04  9.75778441E-04  9.98861054E-04       0.00126557       0.00141073       0.00146753       0.00125362       0.00126167  9.93842168E-04  7.63712652E-04  8.81379745E-04       0.00102059       0.00123630       0.00133792       0.00137234       0.00132841       0.00114577
         0.00115947       0.00103668  8.69310952E-04  7.16506039E-04  6.05393028E-04  6.24388214E-04  5.73277634E-04  5.23780420E-04  4.52772056E-04  3.43431863E-04  2.92786609E-04  2.65748611E-04  3.16705612E-04  3.17919085E-04  2.95039926E-04  3.12171370E-04  2.71938555E-04  2.73300057E-04  2.87354891E-04  3.48562968E-04
    3.76342624E-04  3.24499966E-04  3.75950149E-04  3.65806659E-04  3.61391062E-04  3.98996440E-04  4.73694985E-04  6.05434518E-04  6.16575746E-04  9.23811638E-04       0.00134567       0.00144597       0.00156056       0.00150551       0.00155138       0.00119351       0.00117464       0.00158834       0.00161371       0.00171958
         0.00169859       0.00167181       0.00109887  5.97718054E-04  5.07229046E-04  3.91417406E-04  3.49070544E-04  3.87969346E-04  5.35287616E-04  6.85787063E-04  5.39225693E-04  5.39823997E-04  4.91413058E-04  3.66846731E-04  3.25438595E-04  3.55555743E-04  4.83248527E-04  4.23178489E-04  3.97412751E-04  4.16375753E-04
    3.03088651E-04  2.33254108E-04  2.01560715E-04  2.37839664E-04  2.24394439E-04  1.84079388E-04  2.07874908E-04  1.89363793E-04  1.77826419E-04  1.80950901E-04  2.25205909E-04  2.64977551E-04  2.17625735E-04  2.59207140E-04  3.19279139E-04  3.89566036E-04  5.09104033E-04  6.44257997E-04  8.67653727E-04  7.77494782E-04
    5.18734592E-04  4.62641247E-04  4.96433830E-04  8.46408826E-04  9.99464131E-04       0.00111970       0.00134827       0.00159025       0.00171944       0.00144646       0.00151218       0.00119393  8.76187520E-04  8.94245291E-04       0.00100970       0.00129356       0.00141868       0.00153133       0.00146453       0.00122704
         0.00121490       0.00111410       0.00100327  8.13435952E-04  6.63592141E-04  6.47934428E-04  5.85430403E-04  5.52055904E-04  4.85359835E-04  3.87032578E-04  3.11387804E-04  2.59980487E-04  2.99247976E-04  2.90232907E-04  2.73487702E-04  2.82560520E-04  2.52221728E-04  2.53095308E-04  2.61479025E-04  3.48860614E-04
    3.90018829E-04  3.34741920E-04  3.64814862E-04  3.46627840E-04  3.55885556E-04  3.82949008E-04  4.91450796E-04  6.44679844E-04  5.96995374E-04  7.94647502E-04       0.00108600       0.00127653       0.00139920       0.00145057       0.00170174       0.00131944       0.00124825       0.00157039       0.00165010       0.00169413
         0.00157306       0.00176919       0.00130715  7.35880058E-04  5.81858971E-04  4.24265869E-04  3.49770464E-04  3.26997001E-04  4.52205844E-04  6.54676365E-04  5.76353367E-04  5.96424011E-04  5.47447941E-04  4.32313443E-04  3.40048939E-04  3.38204833E-04  4.73191195E-04  4.31655666E-04  4.20414283E-04  4.48370123E-04
    3.71494458E-04  2.82423823E-04  2.12583602E-04  2.39841578E-04  2.22495359E-04  1.88184169E-04  2.12471803E-04  2.09812126E-04  2.08526218E-04  1.88631358E-04  2.24079491E-04  2.61694306E-04  2.19190694E-04  2.51320523E-04  2.98081487E-04  3.87977789E-04  4.88854181E-04  6.21133109E-04  8.51350473E-04  7.35169090E-04
    5.78835025E-04  4.97489006E-04  4.76960735E-04  7.47624107E-04  9.41873131E-04       0.00115890       0.00136602       0.00174984       0.00201500       0.00174526       0.00188339       0.00149694       0.00106891  9.39294633E-04  9.96885540E-04       0.00131500       0.00150876       0.00176959       0.00171325       0.00139408
         0.00128375       0.00115836       0.00111177  9.25463003E-04  7.62210093E-04  7.18421650E-04  6.37548380E-04  5.97864597E-04  5.21544913E-04  4.36288787E-04  3.35025253E-04  2.62687458E-04  2.91376555E-04  2.78018174E-04  2.65619518E-04  2.64497816E-04  2.39723371E-04  2.29383300E-04  2.23533554E-04  3.20601484E-04
    3.92079378E-04  3.65399524E-04  3.83258237E-04  3.51529751E-04  3.52767995E-04  3.47138461E-04  4.68827236E-04  6.60029170E-04  6.16611127E-04  7.45927008E-04  9.34636050E-04       0.00115765       0.00122726       0.00130773       0.00169036       0.00138628       0.00131018       0.00156002       0.00177599       0.00178946
         0.00150019       0.00173087       0.00138779  8.55079242E-04  6.61656702E-04  4.94069422E-04  3.97134648E-04  3.08908272E-04  3.86514874E-04  5.69647755E-04  5.61957159E-04  6.07083076E-04  5.81444104E-04  5.16755023E-04  3.80239176E-04  3.46289836E-04  4.70388387E-04  4.39069072E-04  4.29907726E-04  4.47043780E-04
    4.32356268E-04  3.53019337E-04  2.51912598E-04  2.70177984E-04  2.36251404E-04  1.94743019E-04  2.02777179E-04  2.12246700E-04  2.33403022E-04  2.05764563E-04  2.41002107E-04  2.73623431E-04  2.32557313E-04  2.48042371E-04  2.73904170E-04  3.70615621E-04  4.55303688E-04  5.98799690E-04  8.51449193E-04  7.50420886E-04
    6.02453761E-04  5.51810545E-04  5.07493524E-04  7.02214028E-04  8.89352428E-04       0.00114765       0.00130325       0.00177902       0.00218239       0.00205315       0.00235299       0.00196433       0.00142013       0.00105679  9.99892309E-04       0.00126046       0.00149373       0.00194738       0.00201526       0.00167081
         0.00140852       0.00119478       0.00116463  9.94886235E-04  8.46310043E-04  7.91423183E-04  7.09075805E-04  6.61751931E-04  5.73316052E-04  5.01189168E-04  3.67511385E-04  2.68713116E-04  2.79669565E-04  2.65828469E-04  2.60010531E-04  2.55472185E-04  2.42423592E-04  2.19381842E-04  1.92102724E-04  2.69780975E-04
    3.52512624E-04  3.78478607E-04  4.07607572E-04  3.84384528E-04  3.78933961E-04  3.26871211E-04  4.27843509E-04  6.23582590E-04  6.25300128E-04  7.12742919E-04  8.35041078E-04       0.00109575       0.00112480       0.00119584       0.00160085       0.00138584       0.00129553       0.00143889       0.00183826       0.00196225
         0.00156564       0.00174277       0.00142037  9.33058348E-04  6.94659322E-04  5.55794365E-04  4.73442599E-04  3.28559907E-04  3.62594267E-04  4.99536403E-04  5.30137303E-04  5.74600172E-04  5.64175670E-04  5.74320146E-04  4.23025459E-04  3.71486474E-04  4.86956696E-04  4.73548736E-04  4.58519918E-04  4.35173848E-04
    4.61602972E-04  4.10869032E-04  3.03705538E-04  3.25464896E-04  2.78829245E-04  2.23424909E-04  2.00313994E-04  2.04513781E-04  2.37239597E-04  2.13995146E-04  2.58389086E-04  2.93903520E-04  2.64084040E-04  2.63573528E-04  2.66244224E-04  3.53436196E-04  4.08920812E-04  5.46635350E-04  8.00831204E-04  7.71454884E-04
    5.59010107E-04  5.70680612E-04  5.49334132E-04  6.89164874E-04  8.74202907E-04       0.00115573       0.00124742       0.00173040       0.00215743       0.00220820       0.00270724       0.00251785       0.00200628       0.00131765       0.00108256       0.00120298       0.00137141       0.00191311       0.00218175       0.00198949
         0.00158947       0.00124661       0.00118166       0.00100753  8.73943245E-04  8.13181808E-04  7.51775675E-04  7.06532961E-04  6.19109872E-04  5.79104685E-04  4.18141684E-04  2.84516394E-04  2.66745273E-04  2.47484490E-04  2.42122602E-04  2.37147159E-04  2.48256517E-04  2.24723591E-04  1.78194259E-04  2.26505883E-04
    2.91931411E-04  3.49836248E-04  3.94908278E-04  4.12663867E-04  4.28115794E-04  3.35670086E-04  4.04794001E-04  5.73605632E-04  6.21207822E-04  6.68395056E-04  7.32848711E-04       0.00101720       0.00104998       0.00113657       0.00153924       0.00141479       0.00126828       0.00123399       0.00168461       0.00199212
         0.00167889       0.00185132       0.00152832       0.00104153  7.02000025E-04  5.79499306E-04  5.36820807E-04  3.62881305E-04  3.64662780E-04  4.58437250E-04  5.15298242E-04  5.44186596E-04  5.26487666E-04  5.85962881E-04  4.40917623E-04  3.85445263E-04  4.91844198E-04  5.27454798E-04  5.29939151E-04  4.55951419E-04
    4.87868874E-04  4.43805898E-04  3.44236400E-04  3.76615799E-04  3.38792623E-04  2.82197078E-04  2.20214185E-04  2.07815896E-04  2.33021373E-04  2.10661014E-04  2.59693534E-04  2.99985190E-04  2.99124474E-04  2.93053635E-04  2.82206876E-04  3.60030261E-04  3.80702972E-04  4.89839000E-04  6.92205173E-04  7.32287205E-04
    4.96507455E-04  5.45612077E-04  5.65575014E-04  6.60562550E-04  8.55754712E-04       0.00117222       0.00124457       0.00172791       0.00209649       0.00223766       0.00278084       0.00289868       0.00273325       0.00177029       0.00132657       0.00125165       0.00127089       0.00173579       0.00210762       0.00220373
         0.00177460       0.00132597       0.00119891  9.94124814E-04  8.61948541E-04  7.84548053E-04  7.46692040E-04  7.03434152E-04  6.25008699E-04  6.38969754E-04  4.82709393E-04  3.18014031E-04  2.64236498E-04  2.32507906E-04  2.17399956E-04  2.03574539E-04  2.35891060E-04  2.30585163E-04  1.78216361E-04  2.02733177E-04
    2.45409405E-04  3.04569277E-04  3.41803891E-04  3.98461821E-04  4.60195650E-04  3.57919875E-04  4.01877029E-04  5.40397165E-04  6.35631599E-04  6.42954660E-04  6.41425810E-04  8.94060677E-04  9.35058831E-04       0.00105655       0.00146826       0.00151876       0.00133427       0.00108562       0.00141551       0.00176007
         0.00165569       0.00190188       0.00169609       0.00125008  7.49918636E-04  5.96808353E-04  5.72615351E-04  3.93041872E-04  3.68373943E-04  4.21763432E-04  5.07299630E-04  5.30928560E-04  5.06924427E-04  5.87781386E-04  4.45248126E-04  3.79335687E-04  4.53245798E-04  5.48839808E-04  6.17447702E-04  5.22575067E-04
    5.56381512E-04  4.87373617E-04  3.78792885E-04  4.01885459E-04  3.85083974E-04  3.55772481E-04  2.60335930E-04  2.31343206E-04  2.39906617E-04  2.10705883E-04  2.52877875E-04  2.87137175E-04  3.16107123E-04  3.12799372E-04  3.05948287E-04  3.87709126E-04  3.86200950E-04  4.68908430E-04  5.95353006E-04  6.48374288E-04
    4.63455295E-04  5.21511618E-04  5.68172780E-04  6.11203562E-04  7.96959858E-04       0.00112208       0.00123629       0.00177544       0.00213084       0.00233482       0.00274427       0.00301385       0.00329540       0.00231261       0.00176755       0.00147668       0.00131074       0.00161575       0.00194243       0.00226549
         0.00189833       0.00142354       0.00123913  9.95574486E-04  8.56525603E-04  7.53016873E-04  7.29994802E-04  6.77687200E-04  5.94700385E-04  6.47906050E-04  5.37700710E-04  3.68571931E-04  2.79394467E-04  2.32701988E-04  2.03306999E-04  1.72062534E-04  2.04030009E-04  2.19189525E-04  1.80835776E-04  1.91359458E-04
    2.20082392E-04  2.73980502E-04  2.87274934E-04  3.51103904E-04  4.45240860E-04  3.67503565E-04  3.94608422E-04  5.07171702E-04  6.70482750E-04  6.66272342E-04  6.04114676E-04  7.88855911E-04  8.00030002E-04  9.13786756E-04       0.00128042       0.00159287       0.00150890       0.00106844       0.00122941       0.00144817
         0.00146559       0.00173322       0.00175482       0.00151741  8.67879543E-04  6.54577524E-04  6.14388777E-04  4.29922307E-04  3.72191151E-04  3.77829927E-04  4.76794748E-04  5.06884081E-04  4.99589011E-04  6.05809870E-04  4.71017902E-04  3.81986596E-04  3.94996474E-04  5.06613339E-04  6.46071240E-04  5.95670401E-04
    6.72343235E-04  5.79103549E-04  4.43007352E-04  4.23578208E-04  4.09404307E-04  4.15787274E-04  3.03906836E-04  2.67652605E-04  2.59576506E-04  2.23748077E-04  2.55420174E-04  2.76495496E-04  3.19877572E-04  3.10687201E-04  3.13082274E-04  4.03690537E-04  4.06334774E-04  4.87756979E-04  5.57050511E-04  5.92049819E-04
    4.58001260E-04  5.25495809E-04  5.93600002E-04  5.82280967E-04  7.31656150E-04  9.97868276E-04       0.00114506       0.00173681       0.00218515       0.00257856       0.00284850       0.00312012       0.00361930       0.00275020       0.00229119       0.00184724       0.00152745       0.00165709       0.00187686       0.00231440