# File generated by Flopy version 3.5.0 on 03/06/2024 at 10:47:59.
BEGIN griddata
  strt
    INTERNAL  FACTOR  1.0
        15.00000000      15.00000000      15.00000000      15.00000000      15.00000000      15.00000000      15.00000000      15.00000000      15.00000000      15.00000000      15.00000000      15.00000000      15.00000000      15.00000000      15.00000000      15.00000000      15.00000000      15.00000000      15.00000000      15.00000000
        15.00000000      15.00000000      15.00000000      15.00000000      15.00000000      15.00000000      15.00000000      15.00000000      15.00000000      15.00000000      15.00000000      15.00000000      15.00000000      15.00000000      15.00000000      15.00000000      15.00000000      15.00000000      15.00000000      15.00000000
        15.00000000      15.00000000      15.00000000      15.00000000      15.00000000      15.00000000      15.00000000      15.00000000      15.00000000      15.00000000      15.00000000      15.00000000      15.00000000      15.00000000      15.00000000      15.00000000      15.00000000      15.00000000      15.00000000      15.00000000
        15.00000000      15.00000000      15.00000000      15.00000000      15.00000000      15.00000000      15.00000000      15.00000000      15.00000000      15.00000000      15.00000000      15.00000000      15.00000000      15.00000000      15.00000000      15.00000000      15.00000000      15.00000000      15.00000000      15.00000000
        15.00000000      15.00000000      15.00000000      15.00000000      15.00000000      15.00000000      15.00000000      15.00000000      15.00000000      15.00000000      15.00000000      15.00000000      15.00000000      15.00000000      15.00000000      15.00000000      15.00000000      15.00000000      15.00000000      15.00000000
        15.24968490      15.25952130      15.26841558      15.27505952      15.28541743      15.29278434      15.28850140      15.27053100      15.25278513      15.23370302      15.21246458      15.20441117      15.20723637      15.20975712      15.20475240      15.19632842      15.18550069      15.17099225      15.16032235      15.15193702
        15.14333817      15.13394778      15.12527376      15.11746048      15.10867918      15.09876697      15.09015412      15.08376535      15.07900224      15.07440516      15.07260462      15.07176559      15.06755708      15.06141087      15.05517336      15.05113300      15.04890543      15.04962144      15.05243072      15.05273272
        15.05029316      15.04661826      15.04412607      15.04299994      15.04271460      15.04454600      15.04658707      15.04877872      15.05123040      15.05316006      15.05374021      15.05118454      15.04811594      15.04606756      15.04629317      15.04925208      15.05227291      15.05448430      15.05423044      15.05290719
        15.05236463      15.05190630      15.05238200      15.05221276      15.05127248      15.05033533      15.05010100      15.05114209      15.05101253      15.05008893      15.04866570      15.04709649      15.04662732      15.04672807      15.04734376      15.04626970      15.04421423      15.04340951      15.04384420      15.04529593
        15.04643895      15.04799191      15.04881620      15.04759447      15.04678181      15.04670927      15.04618907      15.04352970      15.04059700      15.03889793      15.03699311      15.03635889      15.03697798      15.03764826      15.03752961      15.03761178      15.03960588      15.04107432      15.04167655      15.04259531
        15.53607682      15.54319349      15.55214812      15.55974939      15.56968982      15.57828596      15.57319995      15.54481068      15.51413438      15.48144986      15.44187680      15.41630586      15.40925047      15.40787079      15.39868425      15.38464938      15.36709259      15.34248811      15.32081988      15.30232871
        15.28344331      15.26405334      15.24642985      15.23120343      15.21517048      15.19742178      15.18066986      15.16719035      15.15617261      15.14544147      15.13910647      15.13587207      15.13017246      15.12154017      15.11166193      15.10385407      15.09803299      15.09655604      15.09901357      15.10042595
        15.09911792      15.09497321      15.09078183      15.08760232      15.08595823      15.08749615      15.09005310      15.09358783      15.09742851      15.10106140      15.10324258      15.10105010      15.09680747      15.09243082      15.09094664      15.09356922      15.09777039      15.10208328      15.10326021      15.10186246
        15.09976872      15.09739205      15.09668797      15.09600132      15.09491388      15.09377975      15.09357674      15.09477623      15.09447349      15.09305897      15.09094401      15.08844960      15.08698519      15.08682407      15.08807289      15.08726648      15.08424782      15.08175169      15.08120395      15.08282271
        15.08480829      15.08780791      15.09008355      15.08983583      15.08878914      15.08803759      15.08724387      15.08404316      15.08031498      15.07764034      15.07445301      15.07270490      15.07296312      15.07405063      15.07366590      15.07308554      15.07544322      15.07813505      15.08003405      15.08134516
        15.83033047      15.83728410      15.84747809      15.85622765      15.86196182      15.86764692      15.86110056      15.82413269      15.78112079      15.73765495      15.68509983      15.64072299      15.61803816      15.60693450      15.59019825      15.56976407      15.54672662      15.51518293      15.48398010      15.45644647
        15.42792106      15.39811384      15.37006917      15.34589134      15.32253164      15.29812861      15.27375955      15.25300657      15.23567705      15.21847397      15.20566932      15.19749407      15.18964681      15.18005710      15.16904470      15.15924632      15.15009677      15.14503347      15.14511316      15.14628702
        15.14588617      15.14250055      15.13839452      15.13423206      15.13110583      15.13108189      15.13288450      15.13656510      15.14059838      15.14509350      15.14886472      15.14880146      15.14592152      15.14054091      15.13647671      15.13667604      15.14036788      15.14568819      15.14843311      15.14841510
        15.14605549      15.14169706      15.13852946      15.13613743      15.13447594      15.13318059      15.13321289      15.13488300      15.13522984      15.13422606      15.13176804      15.12809888      15.12471123      15.12329857      15.12469041      15.12485969      15.12239514      15.11914829      15.11728475      15.11774146
        15.11915833      15.12271151      15.12639057      15.12796079      15.12775202      15.12706430      15.12663797      15.12375608      15.11985677      15.11665366      15.11301851      15.11033930      15.10978372      15.11113588      15.11076460      15.10912754      15.11010519      15.11233306      15.11476076      15.11644915
        16.12495164      16.12919638      16.14006106      16.15260977      16.15711583      16.16086397      16.15365600      16.10998975      16.05300195      15.99635352      15.93265078      15.87120122      15.83160663      15.80852457      15.78196294      15.75284299      15.72273099      15.68543662      15.64662941      15.61150461
        15.57533892      15.53653807      15.49847813      15.46460700      15.43280659      15.40114512      15.36889318      15.34087662      15.31788857      15.29514306      15.27580242      15.26151088      15.24988270      15.23789509      15.22540781      15.21480560      15.20428587      15.19636691      15.19315302      15.19266872
        15.19207033      15.18917401      15.18547609      15.18088182      15.17696944      15.17570728      15.17641466      15.17911887      15.18222522      15.18665921      15.19119374      15.19318622      15.19298222      15.18906983      15.18400606      15.18120188      15.18253020      15.18682070      15.18995919      15.19156053
        15.19025231      15.18527023      15.18020355      15.17609345      15.17329355      15.17089886      15.17043023      15.17236925      15.17378792      15.17386138      15.17177186      15.16774222      15.16245794      15.15854782      15.15850126      15.15912814      15.15816938      15.15553550      15.15289043      15.15171713
        15.15168554      15.15470801      15.15887971      15.16204662      15.16362740      15.16435791      15.16517297      15.16320218      15.15949809      15.15587493      15.15186390      15.14790180      15.14604556      15.14760813      15.14805371      15.14612503      15.14512875      15.14557454      15.14713124      15.14825406
        16.42431309      16.42060322      16.42522995      16.43728176      16.44137389      16.44621327      16.44217117      16.39774806      16.32847234      16.25605754      16.17866647      16.09898421      16.04097271      16.00521215      15.96941364      15.93101194      15.89243625      15.84855499      15.80260826      15.76053925
        15.71858548      15.67342411      15.62803251      15.58635198      15.54711785      15.50844888      15.46786977      15.43087879      15.40097667      15.37340547      15.34899077      15.32932246      15.31317423      15.29724849      15.28174766      15.26953273      15.25830316      15.24891142      15.24324642      15.24103819
        15.23942225      15.23601935      15.23208914      15.22698295      15.22243447      15.22012220      15.22006093      15.22196435      15.22405456      15.22764560      15.23157999      15.23437748      15.23639968      15.23513854      15.23126793      15.22694438      15.22585140      15.22801094      15.22993178      15.23169812
        15.23143352      15.22740602      15.22178962      15.21645236      15.21251398      15.20880682      15.20709590      15.20813195      15.20981934      15.21101969      15.21025892      15.20738772      15.20123927      15.19443265      15.19164479      15.19147042      15.19116606      15.18926357      15.18704278      15.18548617
        15.18424136      15.18583592      15.18954583      15.19378494      15.19687149      15.19872330      15.20058853      15.20029850      15.19818195      15.19504329      15.19097316      15.18569660      15.18203211      15.18293905      15.18387637      15.18247165      15.18045059      15.17914593      15.17890106      15.17850107
        16.72805086      16.71519007      16.70853903      16.71231191      16.70899205      16.71056908      16.71034338      16.67479029      16.60248139      16.51633653      16.42322372      16.32286701      16.24233379      16.19032291      16.14514272      16.09852995      16.05248137      16.00211117      15.94866360      15.89939784
        15.85261656      15.80304240      15.75260670      15.70549115      15.66165750      15.61886741      15.57211735      15.52513546      15.48537836      15.45164541      15.42284814      15.39933468      15.37971514      15.36012499      15.34059852      15.32462257      15.31108749      15.30021781      15.29316118      15.29011163
        15.28789537      15.28418609      15.27999791      15.27401471      15.26790106      15.26363920      15.26255822      15.26391923      15.26560475      15.26871391      15.27186532      15.27453940      15.27727531      15.27781050      15.27594463      15.27185319      15.26936095      15.26944846      15.26962157      15.27048275
        15.27044946      15.26760705      15.26220573      15.25648075      15.25217077      15.24761599      15.24434330      15.24366381      15.24472295      15.24608772      15.24604042      15.24482033      15.23976268      15.23159448      15.22574998      15.22348554      15.22264960      15.22101319      15.21952150      15.21828006
        15.21653923      15.21695635      15.21982998      15.22410170      15.22753682      15.23007902      15.23293914      15.23433323      15.23413706      15.23244465      15.22968033      15.22409827      15.21790096      15.21627113      15.21665960      15.21627631      15.21466070      15.21283114      15.21145760      15.20981310
        17.02721235      17.00968026      16.99250452      16.98445412      16.96766020      16.95670803      16.95205193      16.92657782      16.86266927      16.77262473      16.66860062      16.54788620      16.43987391      16.36575833      16.30861081      16.25350740      16.20057793      16.14519938      16.08569299      16.02934699
        15.97778373      15.92436210      15.86975851      15.81827458      15.77137708      15.72719321      15.67885038      15.62590447      15.57580968      15.53213443      15.49594769      15.46822900      15.44651905      15.42481939      15.40184254      15.38162461      15.36486838      15.35160968      15.34259314      15.33861475
        15.33628308      15.33300861      15.32889883      15.32207667      15.31408070      15.30729352      15.30435196      15.30443852      15.30580190      15.30923395      15.31244875      15.31491993      15.31714599      15.31806765      15.31751376      15.31414614      15.31117819      15.31007467      15.30928098      15.30928389
        15.30892452      15.30676809      15.30143479      15.29522878      15.29056571      15.28574746      15.28171549      15.27984155      15.28005032      15.28063201      15.28013738      15.27976439      15.27645284      15.26875605      15.26099613      15.25657906      15.25450466      15.25212687      15.25051991      15.24952052
        15.24794999      15.24768988      15.24962566      15.25352057      15.25697034      15.25973717      15.26260283      15.26454838      15.26571253      15.26575033      15.26513317      15.26108824      15.25399176      15.24948556      15.24802431      15.24744506      15.24612086      15.24478615      15.24354694      15.24147418
        17.30854884      17.29166306      17.26981469      17.25318288      17.22371512      17.19455326      17.17598690      17.15317588      17.10000343      17.01537333      16.91092144      16.77872530      16.64301665      16.54067522      16.46639809      16.40048129      16.33964417      16.27973243      16.21584673      16.15336473
        16.09769987      16.04163910      15.98312364      15.92639755      15.87534256      15.83011203      15.78315531      15.72977920      15.67350138      15.61928198      15.57234182      15.53701536      15.51161633      15.48871269      15.46452607      15.44139506      15.42100168      15.40416810      15.39229466      15.38659114
        15.38341514      15.38033408      15.37697214      15.37093664      15.36244165      15.35319344      15.34732638      15.34484175      15.34481724      15.34795411      15.35149861      15.35459969      15.35690246      15.35796255      15.35771374      15.35436063      15.35090170      15.34886207      15.34736795      15.34663013
        15.34639108      15.34548528      15.34057593      15.33342836      15.32778856      15.32289766      15.31889214      15.31649915      15.31619703      15.31600518      15.31443029      15.31336939      15.31058056      15.30393225      15.29592690      15.29044292      15.28739388      15.28401139      15.28171890      15.28047825
        15.27876632      15.27742573      15.27814988      15.28154556      15.28486127      15.28751932      15.29010671      15.29223075      15.29401370      15.29483076      15.29575910      15.29418792      15.28859468      15.28248309      15.27863537      15.27663710      15.27474950      15.27375526      15.27312283      15.27155222
        17.57135412      17.55288371      17.52859721      17.50883361      17.47451890      17.43001662      17.39298501      17.36394247      17.31567794      17.23810521      17.14002341      17.00925959      16.85549531      16.72404290      16.62771855      16.54744803      16.47630837      16.41026415      16.34183315      16.27393765
        16.21518933      16.15833917      16.09757041      16.03537769      15.97787734      15.92892422      15.88268831      15.83202744      15.77549565      15.71478697      15.65671272      15.61020239      15.57736757      15.55128387      15.52615108      15.50163415      15.47891051      15.45893653      15.44396015      15.43572738
        15.43069421      15.42685238      15.42356826      15.41855039      15.41091822      15.40093580      15.39283008      15.38716165      15.38419002      15.38552395      15.38891765      15.39300881      15.39600913      15.39770407      15.39789162      15.39428821      15.38940724      15.38531532      15.38243001      15.38080930
        15.38172459      15.38315537      15.38011841      15.37299873      15.36616788      15.36021390      15.35530240      15.35223633      15.35206980      15.35198292      15.34972507      15.34744536      15.34439327      15.33854546      15.33037363      15.32393343      15.32027233      15.31642728      15.31325793      15.31103522
        15.30871724      15.30633194      15.30577689      15.30822026      15.31111878      15.31391833      15.31662653      15.31867266      15.32000873      15.32046591      15.32186702      15.32210453      15.31883768      15.31319025      15.30831213      15.30505045      15.30193060      15.30027213      15.29964740      15.29871260
        17.82928551      17.80307975      17.76800542      17.74088636      17.70712515      17.65727997      17.60531797      17.56446545      17.51386925      17.44087237      17.35020018      17.22861930      17.07002739      16.91599849      16.79677323      16.69977519      16.61586923      16.54097444      16.46584755      16.39156547
        16.33059639      16.27431975      16.21425282      16.14910172      16.08475521      16.02866844      15.97937511      15.93006495      15.87621796      15.81470416      15.74914304      15.69107936      15.64827268      15.61605113      15.58766566      15.56123038      15.53709662      15.51486665      15.49704467      15.48624385
        15.47923727      15.47395424      15.46950899      15.46455029      15.45798704      15.44887685      15.44044800      15.43277547      15.42640043      15.42429973      15.42604080      15.43005773      15.43337569      15.43598086      15.43716365      15.43403461      15.42803441      15.42137138      15.41568246      15.41125013
        15.41435038      15.41884137      15.41908626      15.41389569      15.40669990      15.39938360      15.39269936      15.38789080      15.38715438      15.38747379      15.38573337      15.38296504      15.37927445      15.37333187      15.36439624      15.35662274      15.35206235      15.34791512      15.34424477      15.34152637
        15.33913993      15.33583706      15.33338993      15.33404938      15.33596844      15.33838385      15.34073941      15.34268247      15.34398048      15.34421467      15.34517549      15.34581374      15.34438537      15.34039864      15.33582349      15.33188134      15.32779405      15.32532466      15.32422927      15.32341382
        18.08787615      18.05222119      17.99844165      17.95338896      17.91480893      17.86349114      17.80422567      17.75356406      17.69796286      17.62582367      17.53968868      17.42907666      17.27612265      17.10817183      16.96725677      16.85373854      16.75805680      16.67443510      16.59205856      16.50963181
        16.44552218      16.38825461      16.32933598      16.26385862      16.19513026      16.13193814      16.07667629      16.02471705      15.97181882      15.91295035      15.84594051      15.77945131      15.72607685      15.68578146      15.65201418      15.62188156      15.59501501      15.56995078      15.54960519      15.53708379
        15.52892456      15.52240599      15.51647316      15.51084796      15.50426910      15.49536003      15.48729156      15.47973561      15.47171974      15.46596059      15.46471285      15.46727678      15.46996105      15.47282923      15.47468236      15.47261170      15.46686013      15.45876040      15.44975487      15.43922566
        15.44635141      15.45341561      15.45652699      15.45449269      15.44878054      15.44149133      15.43326412      15.42543740      15.42226147      15.42203147      15.42113555      15.41864466      15.41478242      15.40888058      15.39920158      15.38951664      15.38309716      15.37816250      15.37396683      15.37089398
        15.36876093      15.36522389      15.36133683      15.35993439      15.36003744      15.36103759      15.36250577      15.36446973      15.36606457      15.36630862      15.36668323      15.36708374      15.36644913      15.36346920      15.35946111      15.35576013      15.35182142      15.34907852      15.34755500      15.34679191
        18.33861053      18.29895975      18.22750775      18.15790529      18.10536579      18.04747912      17.98199063      17.92356708      17.86409331      17.79238164      17.70870263      17.60734502      17.46595847      17.29335458      17.13282044      17.00183348      16.89579527      16.80690171      16.72378932      16.63983677
        16.56555143      16.49992004      16.43793286      16.37247769      16.30242894      16.23495358      16.17420053      16.11790544      16.06346886      16.00633917      15.94042453      15.86967317      15.80823586      15.76015934      15.71974487      15.68464479      15.65430043      15.62579089      15.60169034      15.58650500
        15.57766284      15.57123174      15.56476003      15.55825441      15.55063070      15.54092945      15.53263159      15.52568899      15.51788316      15.51006835      15.50603573      15.50629876      15.50707173      15.50881382      15.51045387      15.50952735      15.50513934      15.49817680      15.49152213      15.48504136
        15.48621336      15.49015530      15.49314590      15.49335692      15.48999260      15.48438614      15.47629695      15.46608977      15.45942266      15.45706520      15.45583359      15.45320924      15.44951498      15.44420657      15.43439790      15.42290607      15.41427336      15.40820220      15.40293941      15.39875425
        15.39644610      15.39326543      15.38887416      15.38563669      15.38359780      15.38266923      15.38265640      15.38391004      15.38534761      15.38593638      15.38641114      15.38665792      15.38617766      15.38369714      15.38024452      15.37694109      15.37340015      15.37071314      15.36914189      15.36864945
        18.56732968      18.53165855      18.45245395      18.35996313      18.28718422      18.21683510      18.14194320      18.07325229      18.00814279      17.93620298      17.85492136      17.76183809      17.63497131      17.46677411      17.29160001      17.14150373      17.02253870      16.92812383      16.84668230      16.76480148
        16.68333886      16.60727065      16.53810380      16.47026594      16.39941160      16.33013514      16.26645417      16.20717344      16.15093479      16.09465573      16.03036634      15.95754861      15.89026086      15.83582535      15.78940043      15.74942713      15.71572801      15.68388081      15.65481086      15.63496939
        15.62424906      15.61785314      15.61180958      15.60573584      15.59796128      15.58722515      15.57732467      15.56994568      15.56290027      15.55450323      15.54854040      15.54669356      15.54568843      15.54587883      15.54643103      15.54578259      15.54238433      15.53694392      15.53282270      15.52904580
        15.52755310      15.52847703      15.53020428      15.53105149      15.52911549      15.52571423      15.51977592      15.50931562      15.49922057      15.49342726      15.49062650      15.48706759      15.48291918      15.47783591      15.46865249      15.45664081      15.44612789      15.43842885      15.43148848      15.42551357
        15.42203736      15.41850495      15.41385695      15.40988676      15.40685338      15.40437664      15.40231130      15.40198653      15.40273101      15.40338984      15.40382189      15.40395218      15.40377633      15.40200493      15.39899963      15.39568421      15.39232395      15.38981065      15.38834778      15.38809242
        18.77054321      18.73913098      18.66200011      18.55703931      18.46426774      18.37786051      18.29052475      18.20886110      18.13464911      18.05776372      17.97525425      17.88827227      17.77821298      17.62454570      17.44429108      17.27632331      17.13987132      17.03525608      16.95281420      16.87431273
        16.79179584      16.70852515      16.63122310      16.55829185      16.48486029      16.41400634      16.34897550      16.28829920      16.23099920      16.17605432      16.11498727      16.04234425      15.97030808      15.90986936      15.85829038      15.81411796      15.77769771      15.74379613      15.71043641      15.68488554
        15.67020815      15.66195940      15.65571376      15.65077943      15.64429039      15.63369761      15.62219282      15.61361076      15.60689175      15.59827967      15.59090361      15.58739301      15.58531756      15.58429949      15.58364168      15.58278059      15.57948118      15.57432094      15.57121945      15.56911618
        15.56779360      15.56753400      15.56822851      15.56874505      15.56691437      15.56447890      15.56042131      15.55138227      15.53989313      15.53123142      15.52639141      15.52133071      15.51611583      15.51058369      15.50165085      15.48910308      15.47681799      15.46767346      15.45945986      15.45163196
        15.44614000      15.44149773      15.43651710      15.43218583      15.42869208      15.42531836      15.42166538      15.41951213      15.41875029      15.41861229      15.41880707      15.41919806      15.41959390      15.41855299      15.41613497      15.41299798      15.40963983      15.40666875      15.40469174      15.40432299
        18.96055839      18.92806584      18.85226459      18.74061080      18.63170401      18.53038650      18.43019003      18.33441214      18.24917835      18.16401954      18.07562427      17.98850309      17.89064371      17.75756380      17.58701092      17.41000203      17.25402234      17.13300428      17.04388972      16.96675111
        16.88688503      16.80131755      16.71821801      16.63989187      16.56245253      16.48839038      16.42126533      16.35952556      16.30165387      16.24835532      16.19193167      16.12310571      16.04980276      15.98442249      15.92706026      15.87718709      15.83755837      15.80311530      15.76738455      15.73648171
        15.71682839      15.70533674      15.69747118      15.69249962      15.68734656      15.67855096      15.66714324      15.65758120      15.65065562      15.64188900      15.63332303      15.62800257      15.62481102      15.62287292      15.62165864      15.62115426      15.61795994      15.61191431      15.60778926      15.60590727
        15.60529162      15.60498718      15.60555553      15.60616505      15.60433754      15.60177492      15.59833716      15.59106012      15.57987844      15.56937797      15.56246772      15.55584269      15.54929254      15.54267487      15.53328814      15.51970383      15.50541231      15.49476557      15.48583929      15.47704480
        15.46989129      15.46381256      15.45765481      15.45208607      15.44787745      15.44423488      15.43997593      15.43647141      15.43428831      15.43328536      15.43296046      15.43302643      15.43325516      15.43249726      15.43067458      15.42788854      15.42461961      15.42138050      15.41906928      15.41848292
        19.14567458      19.10845400      19.03028996      18.91148089      18.78642173      18.67040108      18.55831792      18.44995073      18.35407795      18.25969042      18.16311229      18.06986633      17.97532110      17.85851025      17.70677482      17.53586182      17.36778440      17.22835433      17.12656436      17.04579753
        16.96806362      16.88359039      16.79812247      16.71590445      16.63468641      16.55684270      16.48692176      16.42361869      16.36433154      16.31169712      16.26023748      16.19806921      16.12706452      16.05907087      15.99706049      15.94050367      15.89525341      15.85940394      15.82339287      15.78972271
        15.76582963      15.75028487      15.73918919      15.73235024      15.72731759      15.72016933      15.70969658      15.70022025      15.69400014      15.68619607      15.67699790      15.66957777      15.66473854      15.66142261      15.65933353      15.65923373      15.65702386      15.65090161      15.64496393      15.64147884
        15.64027186      15.63985617      15.64092129      15.64214678      15.64078498      15.63815373      15.63479098      15.62873395      15.61796230      15.60599999      15.59720653      15.58940223      15.58170884      15.57398017      15.56431343      15.55005081      15.53334640      15.51986412      15.50943683      15.50015800
        15.49224996      15.48510628      15.47762369      15.47058225      15.46541454      15.46141011      15.45691049      15.45272421      15.44960916      15.44757503      15.44604295      15.44512770      15.44475931      15.44392369      15.44232122      15.43989466      15.43720432      15.43441152      15.43211852      15.43116057
        19.32510806      19.28257554      19.20113159      19.07651674      18.93457199      18.79978182      18.67199493      18.55097248      18.44608079      18.34424761      18.24042020      18.13850069      18.04058618      17.93119854      17.79554114      17.63950155      17.47261892      17.32114068      17.20460931      17.11557740
        17.03691369      16.95392171      16.86856663      16.78474508      16.70147990      16.62088227      16.54853271      16.48372729      16.42219007      16.36812107      16.31955785      16.26429307      16.19863020      16.13169253      16.06828399      16.00657367      15.95426000      15.91456524      15.87774541      15.84234584